Nepetin_5317284_out
     RDKit          3D

 35 37  0  0  0  0  0  0  0  0999 V2000
    2.5820   53.8430   16.8330 C   0  0  0  0  0  0  0  0  0  0  0  0
    3.7930   53.3170   17.3690 O   0  0  0  0  0  0  0  0  0  0  0  0
    3.6780   52.4120   18.3830 C   0  0  0  0  0  0  0  0  0  0  0  0
    3.6870   52.8500   19.7080 C   0  0  0  0  0  0  0  0  0  0  0  0
    3.8090   54.1780   19.9970 O   0  0  0  0  0  0  0  0  0  0  0  0
    3.5700   51.9320   20.7510 C   0  0  0  0  0  0  0  0  0  0  0  0
    3.4440   50.5720   20.4670 C   0  0  0  0  0  0  0  0  0  0  0  0
    3.3330   49.7170   21.5340 O   0  0  0  0  0  0  0  0  0  0  0  0
    3.2000   48.3600   21.2820 C   0  0  0  0  0  0  0  0  0  0  0  0
    3.0950   47.5310   22.4980 C   0  0  0  0  0  0  0  0  0  0  0  0
    3.7410   46.2940   22.5630 C   0  0  0  0  0  0  0  0  0  0  0  0
    3.6430   45.5120   23.7130 C   0  0  0  0  0  0  0  0  0  0  0  0
    2.8970   45.9620   24.8020 C   0  0  0  0  0  0  0  0  0  0  0  0
    2.8070   45.1870   25.9200 O   0  0  0  0  0  0  0  0  0  0  0  0
    2.2500   47.1970   24.7420 C   0  0  0  0  0  0  0  0  0  0  0  0
    1.5180   47.6470   25.7990 O   0  0  0  0  0  0  0  0  0  0  0  0
    2.3490   47.9800   23.5910 C   0  0  0  0  0  0  0  0  0  0  0  0
    3.1850   47.8170   20.0530 C   0  0  0  0  0  0  0  0  0  0  0  0
    3.3040   48.6960   18.8710 C   0  0  0  0  0  0  0  0  0  0  0  0
    3.2930   48.2420   17.7360 O   0  0  0  0  0  0  0  0  0  0  0  0
    3.4360   50.1360   19.1430 C   0  0  0  0  0  0  0  0  0  0  0  0
    3.5530   51.0520   18.0950 C   0  0  0  0  0  0  0  0  0  0  0  0
    3.5480   50.6610   16.7900 O   0  0  0  0  0  0  0  0  0  0  0  0
    1.9126   54.1338   17.6560 H   0  0  0  0  0  0  0  0  0  0  0  0
    2.8071   54.7244   16.2146 H   0  0  0  0  0  0  0  0  0  0  0  0
    2.0915   53.0768   16.2146 H   0  0  0  0  0  0  0  0  0  0  0  0
    3.0220   54.6900   20.3120 H   0  0  0  0  0  0  0  0  0  0  0  0
    3.5770   52.2792   21.7948 H   0  0  0  0  0  0  0  0  0  0  0  0
    4.3285   45.9361   21.7046 H   0  0  0  0  0  0  0  0  0  0  0  0
    4.1545   44.5393   23.7615 H   0  0  0  0  0  0  0  0  0  0  0  0
    2.4520   45.5720   26.7600 H   0  0  0  0  0  0  0  0  0  0  0  0
    0.6730   48.1390   25.6420 H   0  0  0  0  0  0  0  0  0  0  0  0
    1.8384   48.9532   23.5440 H   0  0  0  0  0  0  0  0  0  0  0  0
    3.0851   46.7287   19.9279 H   0  0  0  0  0  0  0  0  0  0  0  0
    2.6950   50.6180   16.2890 H   0  0  0  0  0  0  0  0  0  0  0  0
  1  2  1  0
  2  3  1  0
  3  4  2  0
  4  5  1  0
  4  6  1  0
  6  7  2  0
  7  8  1  0
  8  9  1  0
  9 10  1  0
 10 11  1  0
 11 12  2  0
 12 13  1  0
 13 14  1  0
 13 15  2  0
 15 16  1  0
 15 17  1  0
  9 18  2  0
 18 19  1  0
 19 20  2  0
 19 21  1  0
 21 22  2  0
 22 23  1  0
 22  3  1  0
 21  7  1  0
 17 10  2  0
  1 24  1  0
  1 25  1  0
  1 26  1  0
  5 27  1  0
  6 28  1  0
 11 29  1  0
 12 30  1  0
 14 31  1  0
 16 32  1  0
 17 33  1  0
 18 34  1  0
 23 35  1  0
M  END
>  <meeko>  (1) 
{"is_sidechain": [false], "free_energy": -10.29, "intermolecular_energy": -12.696, "internal_energy": -0.316}

$$$$
Nepetin_5317284_out
     RDKit          3D

 35 37  0  0  0  0  0  0  0  0999 V2000
    0.1640   55.9850   16.9420 C   0  0  0  0  0  0  0  0  0  0  0  0
    0.9710   54.9520   16.3830 O   0  0  0  0  0  0  0  0  0  0  0  0
    1.1940   53.8530   17.1600 C   0  0  0  0  0  0  0  0  0  0  0  0
    0.2870   52.7930   17.1370 C   0  0  0  0  0  0  0  0  0  0  0  0
   -0.8210   52.8470   16.3450 O   0  0  0  0  0  0  0  0  0  0  0  0
    0.5070   51.6650   17.9280 C   0  0  0  0  0  0  0  0  0  0  0  0
    1.6370   51.5990   18.7420 C   0  0  0  0  0  0  0  0  0  0  0  0
    1.8000   50.4660   19.4980 O   0  0  0  0  0  0  0  0  0  0  0  0
    2.9190   50.3690   20.3110 C   0  0  0  0  0  0  0  0  0  0  0  0
    2.9920   49.1130   21.0840 C   0  0  0  0  0  0  0  0  0  0  0  0
    3.6000   47.9830   20.5320 C   0  0  0  0  0  0  0  0  0  0  0  0
    3.6690   46.7970   21.2620 C   0  0  0  0  0  0  0  0  0  0  0  0
    3.1320   46.7380   22.5480 C   0  0  0  0  0  0  0  0  0  0  0  0
    3.2040   45.5730   23.2520 O   0  0  0  0  0  0  0  0  0  0  0  0
    2.5250   47.8640   23.1040 C   0  0  0  0  0  0  0  0  0  0  0  0
    1.9950   47.8180   24.3580 O   0  0  0  0  0  0  0  0  0  0  0  0
    2.4550   49.0500   22.3720 C   0  0  0  0  0  0  0  0  0  0  0  0
    3.8580   51.3230   20.4230 C   0  0  0  0  0  0  0  0  0  0  0  0
    3.7270   52.5640   19.6320 C   0  0  0  0  0  0  0  0  0  0  0  0
    4.5600   53.4560   19.7030 O   0  0  0  0  0  0  0  0  0  0  0  0
    2.5430   52.6590   18.7630 C   0  0  0  0  0  0  0  0  0  0  0  0
    2.3270   53.7900   17.9730 C   0  0  0  0  0  0  0  0  0  0  0  0
    3.1910   54.8440   17.9680 O   0  0  0  0  0  0  0  0  0  0  0  0
    0.2068   55.9302   18.0398 H   0  0  0  0  0  0  0  0  0  0  0  0
    0.5389   56.9640   16.6088 H   0  0  0  0  0  0  0  0  0  0  0  0
   -0.8766   55.8582   16.6088 H   0  0  0  0  0  0  0  0  0  0  0  0
   -1.6890   52.5110   16.6840 H   0  0  0  0  0  0  0  0  0  0  0  0
   -0.2090   50.8301   17.9095 H   0  0  0  0  0  0  0  0  0  0  0  0
    4.0255   48.0289   19.5187 H   0  0  0  0  0  0  0  0  0  0  0  0
    4.1467   45.9083   20.8239 H   0  0  0  0  0  0  0  0  0  0  0  0
    4.0540   45.0650   23.2810 H   0  0  0  0  0  0  0  0  0  0  0  0
    1.8830   46.9480   24.8160 H   0  0  0  0  0  0  0  0  0  0  0  0
    1.9756   49.9377   22.8104 H   0  0  0  0  0  0  0  0  0  0  0  0
    4.7159   51.1817   21.0969 H   0  0  0  0  0  0  0  0  0  0  0  0
    4.0800   54.7570   18.3940 H   0  0  0  0  0  0  0  0  0  0  0  0
  1  2  1  0
  2  3  1  0
  3  4  2  0
  4  5  1  0
  4  6  1  0
  6  7  2  0
  7  8  1  0
  8  9  1  0
  9 10  1  0
 10 11  1  0
 11 12  2  0
 12 13  1  0
 13 14  1  0
 13 15  2  0
 15 16  1  0
 15 17  1  0
  9 18  2  0
 18 19  1  0
 19 20  2  0
 19 21  1  0
 21 22  2  0
 22 23  1  0
 22  3  1  0
 21  7  1  0
 17 10  2  0
  1 24  1  0
  1 25  1  0
  1 26  1  0
  5 27  1  0
  6 28  1  0
 11 29  1  0
 12 30  1  0
 14 31  1  0
 16 32  1  0
 17 33  1  0
 18 34  1  0
 23 35  1  0
M  END
>  <meeko>  (2) 
{"is_sidechain": [false], "free_energy": -8.684, "intermolecular_energy": -10.752, "internal_energy": -0.279}

$$$$
Nepetin_5317284_out
     RDKit          3D

 35 37  0  0  0  0  0  0  0  0999 V2000
   -1.1690   55.1300   13.3360 C   0  0  0  0  0  0  0  0  0  0  0  0
   -1.7390   54.9470   14.6300 O   0  0  0  0  0  0  0  0  0  0  0  0
   -1.1240   54.0500   15.4550 C   0  0  0  0  0  0  0  0  0  0  0  0
   -1.5210   52.7120   15.4410 C   0  0  0  0  0  0  0  0  0  0  0  0
   -2.5190   52.2940   14.6100 O   0  0  0  0  0  0  0  0  0  0  0  0
   -0.8990   51.7880   16.2800 C   0  0  0  0  0  0  0  0  0  0  0  0
    0.1220   52.2040   17.1340 C   0  0  0  0  0  0  0  0  0  0  0  0
    0.6960   51.2510   17.9360 O   0  0  0  0  0  0  0  0  0  0  0  0
    1.7190   51.6340   18.7900 C   0  0  0  0  0  0  0  0  0  0  0  0
    2.2600   50.5330   19.6110 C   0  0  0  0  0  0  0  0  0  0  0  0
    3.0730   49.5570   19.0290 C   0  0  0  0  0  0  0  0  0  0  0  0
    3.5840   48.5170   19.8050 C   0  0  0  0  0  0  0  0  0  0  0  0
    3.2850   48.4500   21.1650 C   0  0  0  0  0  0  0  0  0  0  0  0
    3.7890   47.4280   21.9130 O   0  0  0  0  0  0  0  0  0  0  0  0
    2.4740   49.4230   21.7510 C   0  0  0  0  0  0  0  0  0  0  0  0
    2.1730   49.3670   23.0780 O   0  0  0  0  0  0  0  0  0  0  0  0
    1.9620   50.4630   20.9740 C   0  0  0  0  0  0  0  0  0  0  0  0
    2.1830   52.8900   18.8970 C   0  0  0  0  0  0  0  0  0  0  0  0
    1.5960   53.9540   18.0570 C   0  0  0  0  0  0  0  0  0  0  0  0
    1.9920   55.1090   18.1230 O   0  0  0  0  0  0  0  0  0  0  0  0
    0.5180   53.5410   17.1460 C   0  0  0  0  0  0  0  0  0  0  0  0
   -0.1030   54.4700   16.3070 C   0  0  0  0  0  0  0  0  0  0  0  0
    0.2580   55.7840   16.2920 O   0  0  0  0  0  0  0  0  0  0  0  0
   -0.1262   55.4648   13.4387 H   0  0  0  0  0  0  0  0  0  0  0  0
   -1.1960   54.1780   12.7855 H   0  0  0  0  0  0  0  0  0  0  0  0
   -1.7451   55.8884   12.7855 H   0  0  0  0  0  0  0  0  0  0  0  0
   -3.1450   51.5870   14.9060 H   0  0  0  0  0  0  0  0  0  0  0  0
   -1.2129   50.7338   16.2682 H   0  0  0  0  0  0  0  0  0  0  0  0
    3.3105   49.6091   17.9562 H   0  0  0  0  0  0  0  0  0  0  0  0
    4.2230   47.7495   19.3439 H   0  0  0  0  0  0  0  0  0  0  0  0
    4.0030   46.5610   21.4850 H   0  0  0  0  0  0  0  0  0  0  0  0
    2.4860   50.0830   23.6870 H   0  0  0  0  0  0  0  0  0  0  0  0
    1.3223   51.2294   21.4359 H   0  0  0  0  0  0  0  0  0  0  0  0
    2.9928   53.1242   19.6037 H   0  0  0  0  0  0  0  0  0  0  0  0
   -0.3670   56.4650   15.9380 H   0  0  0  0  0  0  0  0  0  0  0  0
  1  2  1  0
  2  3  1  0
  3  4  2  0
  4  5  1  0
  4  6  1  0
  6  7  2  0
  7  8  1  0
  8  9  1  0
  9 10  1  0
 10 11  1  0
 11 12  2  0
 12 13  1  0
 13 14  1  0
 13 15  2  0
 15 16  1  0
 15 17  1  0
  9 18  2  0
 18 19  1  0
 19 20  2  0
 19 21  1  0
 21 22  2  0
 22 23  1  0
 22  3  1  0
 21  7  1  0
 17 10  2  0
  1 24  1  0
  1 25  1  0
  1 26  1  0
  5 27  1  0
  6 28  1  0
 11 29  1  0
 12 30  1  0
 14 31  1  0
 16 32  1  0
 17 33  1  0
 18 34  1  0
 23 35  1  0
M  END
>  <meeko>  (3) 
{"is_sidechain": [false], "free_energy": -7.908, "intermolecular_energy": -9.79, "internal_energy": -0.283}

$$$$
