Nepitrin_120742_out
     RDKit          3D

 56 59  0  0  0  0  0  0  0  0999 V2000
    2.4860   53.6560   16.7120 C   0  0  0  0  0  0  0  0  0  0  0  0
    3.7080   53.1670   17.2620 O   0  0  0  0  0  0  0  0  0  0  0  0
    3.6110   52.3010   18.3120 C   0  0  0  0  0  0  0  0  0  0  0  0
    3.6560   52.7880   19.6180 C   0  0  0  0  0  0  0  0  0  0  0  0
    3.7950   54.1250   19.8560 O   0  0  0  0  0  0  0  0  0  0  0  0
    2.7050   54.7760   20.5080 C   0  0  2  0  0  0  0  0  0  0  0  0
    1.8830   55.4230   19.5390 O   0  0  0  0  0  0  0  0  0  0  0  0
    0.7550   56.0750   20.1270 C   0  0  2  0  0  0  0  0  0  0  0  0
   -0.1070   56.6160   18.9900 C   0  0  0  0  0  0  0  0  0  0  0  0
   -1.4380   56.7430   19.4550 O   0  0  0  0  0  0  0  0  0  0  0  0
    1.2260   57.1920   21.0610 C   0  0  1  0  0  0  0  0  0  0  0  0
    0.0960   57.7770   21.7020 O   0  0  0  0  0  0  0  0  0  0  0  0
    2.1820   56.6450   22.1210 C   0  0  2  0  0  0  0  0  0  0  0  0
    2.7700   57.7560   22.8010 O   0  0  0  0  0  0  0  0  0  0  0  0
    3.2840   55.7960   21.4870 C   0  0  1  0  0  0  0  0  0  0  0  0
    3.9830   55.0870   22.5100 O   0  0  0  0  0  0  0  0  0  0  0  0
    3.5580   51.9090   20.6990 C   0  0  0  0  0  0  0  0  0  0  0  0
    3.4140   50.5410   20.4670 C   0  0  0  0  0  0  0  0  0  0  0  0
    3.3230   49.7270   21.5670 O   0  0  0  0  0  0  0  0  0  0  0  0
    3.1710   48.3620   21.3680 C   0  0  0  0  0  0  0  0  0  0  0  0
    3.0890   47.5800   22.6180 C   0  0  0  0  0  0  0  0  0  0  0  0
    3.8080   46.3890   22.7480 C   0  0  0  0  0  0  0  0  0  0  0  0
    3.7300   45.6490   23.9280 C   0  0  0  0  0  0  0  0  0  0  0  0
    2.9340   46.0980   24.9820 C   0  0  0  0  0  0  0  0  0  0  0  0
    2.8660   45.3670   26.1290 O   0  0  0  0  0  0  0  0  0  0  0  0
    2.2140   47.2860   24.8550 C   0  0  0  0  0  0  0  0  0  0  0  0
    1.4330   47.7350   25.8770 O   0  0  0  0  0  0  0  0  0  0  0  0
    2.2920   48.0260   23.6750 C   0  0  0  0  0  0  0  0  0  0  0  0
    3.1220   47.7760   20.1610 C   0  0  0  0  0  0  0  0  0  0  0  0
    3.2190   48.6080   18.9470 C   0  0  0  0  0  0  0  0  0  0  0  0
    3.1750   48.1140   17.8290 O   0  0  0  0  0  0  0  0  0  0  0  0
    3.3690   50.0560   19.1610 C   0  0  0  0  0  0  0  0  0  0  0  0
    3.4680   50.9330   18.0780 C   0  0  0  0  0  0  0  0  0  0  0  0
    3.4270   50.4950   16.7870 O   0  0  0  0  0  0  0  0  0  0  0  0
    1.8007   53.9302   17.5275 H   0  0  0  0  0  0  0  0  0  0  0  0
    2.6912   54.5413   16.0922 H   0  0  0  0  0  0  0  0  0  0  0  0
    2.0238   52.8736   16.0922 H   0  0  0  0  0  0  0  0  0  0  0  0
    2.0849   54.0474   21.0508 H   0  0  0  0  0  0  0  0  0  0  0  0
    0.1627   55.3754   20.7351 H   0  0  0  0  0  0  0  0  0  0  0  0
    0.2708   57.5995   18.6739 H   0  0  0  0  0  0  0  0  0  0  0  0
   -0.0722   55.9290   18.1316 H   0  0  0  0  0  0  0  0  0  0  0  0
   -1.6780   57.7010   19.5130 H   0  0  0  0  0  0  0  0  0  0  0  0
    1.7574   57.9488   20.4653 H   0  0  0  0  0  0  0  0  0  0  0  0
   -0.5830   58.0150   21.0230 H   0  0  0  0  0  0  0  0  0  0  0  0
    1.6225   56.0049   22.8190 H   0  0  0  0  0  0  0  0  0  0  0  0
    2.4710   57.7600   23.7450 H   0  0  0  0  0  0  0  0  0  0  0  0
    3.9607   56.4714   20.9430 H   0  0  0  0  0  0  0  0  0  0  0  0
    3.8180   54.1150   22.4090 H   0  0  0  0  0  0  0  0  0  0  0  0
    3.5942   52.2938   21.7289 H   0  0  0  0  0  0  0  0  0  0  0  0
    4.4368   46.0341   21.9182 H   0  0  0  0  0  0  0  0  0  0  0  0
    4.2963   44.7112   24.0274 H   0  0  0  0  0  0  0  0  0  0  0  0
    1.9950   45.0120   26.4390 H   0  0  0  0  0  0  0  0  0  0  0  0
    0.4720   47.9150   25.7230 H   0  0  0  0  0  0  0  0  0  0  0  0
    1.7244   48.9631   23.5766 H   0  0  0  0  0  0  0  0  0  0  0  0
    3.0105   46.6848   20.0782 H   0  0  0  0  0  0  0  0  0  0  0  0
    2.5550   50.3150   16.3530 H   0  0  0  0  0  0  0  0  0  0  0  0
  1  2  1  0
  2  3  1  0
  3  4  2  0
  4  5  1  0
  5  6  1  0
  6  7  1  0
  7  8  1  0
  8  9  1  0
  9 10  1  0
  8 11  1  0
 11 12  1  0
 11 13  1  0
 13 14  1  0
 13 15  1  0
 15 16  1  0
  4 17  1  0
 17 18  2  0
 18 19  1  0
 19 20  1  0
 20 21  1  0
 21 22  1  0
 22 23  2  0
 23 24  1  0
 24 25  1  0
 24 26  2  0
 26 27  1  0
 26 28  1  0
 20 29  2  0
 29 30  1  0
 30 31  2  0
 30 32  1  0
 32 33  2  0
 33 34  1  0
 33  3  1  0
 15  6  1  0
 32 18  1  0
 28 21  2  0
  1 35  1  0
  1 36  1  0
  1 37  1  0
  6 38  1  1
  8 39  1  1
  9 40  1  0
  9 41  1  0
 10 42  1  0
 11 43  1  6
 12 44  1  0
 13 45  1  1
 14 46  1  0
 15 47  1  6
 16 48  1  0
 17 49  1  0
 22 50  1  0
 23 51  1  0
 25 52  1  0
 27 53  1  0
 28 54  1  0
 29 55  1  0
 34 56  1  0
M  END
>  <meeko>  (1) 
{"is_sidechain": [false], "free_energy": -9.589, "intermolecular_energy": -14.354, "internal_energy": -1.226}

$$$$
Nepitrin_120742_out
     RDKit          3D

 56 59  0  0  0  0  0  0  0  0999 V2000
    0.6080   56.7810   18.2800 C   0  0  0  0  0  0  0  0  0  0  0  0
    1.0890   55.7070   17.4740 O   0  0  0  0  0  0  0  0  0  0  0  0
    1.2870   54.5080   18.0950 C   0  0  0  0  0  0  0  0  0  0  0  0
    0.2290   53.6070   18.2140 C   0  0  0  0  0  0  0  0  0  0  0  0
   -1.0040   53.9140   17.7150 O   0  0  0  0  0  0  0  0  0  0  0  0
   -1.1740   53.7760   16.3040 C   0  0  2  0  0  0  0  0  0  0  0  0
   -1.8770   54.9050   15.7930 O   0  0  0  0  0  0  0  0  0  0  0  0
   -2.0600   54.8410   14.3760 C   0  0  2  0  0  0  0  0  0  0  0  0
   -2.7060   56.1520   13.9360 C   0  0  0  0  0  0  0  0  0  0  0  0
   -2.3920   56.3720   12.5730 O   0  0  0  0  0  0  0  0  0  0  0  0
   -2.9280   53.6340   14.0160 C   0  0  1  0  0  0  0  0  0  0  0  0
   -3.0320   53.5340   12.5990 O   0  0  0  0  0  0  0  0  0  0  0  0
   -2.3210   52.3440   14.5700 C   0  0  2  0  0  0  0  0  0  0  0  0
   -3.2830   51.3000   14.4160 O   0  0  0  0  0  0  0  0  0  0  0  0
   -1.9630   52.4920   16.0490 C   0  0  1  0  0  0  0  0  0  0  0  0
   -1.1580   51.3850   16.4550 O   0  0  0  0  0  0  0  0  0  0  0  0
    0.4220   52.3780   18.8480 C   0  0  0  0  0  0  0  0  0  0  0  0
    1.6780   52.0530   19.3620 C   0  0  0  0  0  0  0  0  0  0  0  0
    1.8080   50.8330   19.9740 O   0  0  0  0  0  0  0  0  0  0  0  0
    3.0470   50.4790   20.4870 C   0  0  0  0  0  0  0  0  0  0  0  0
    3.0730   49.1490   21.1280 C   0  0  0  0  0  0  0  0  0  0  0  0
    3.6730   48.0690   20.4780 C   0  0  0  0  0  0  0  0  0  0  0  0
    3.6970   46.8120   21.0830 C   0  0  0  0  0  0  0  0  0  0  0  0
    3.1210   46.6320   22.3400 C   0  0  0  0  0  0  0  0  0  0  0  0
    3.1500   45.4000   22.9200 O   0  0  0  0  0  0  0  0  0  0  0  0
    2.5190   47.7090   22.9920 C   0  0  0  0  0  0  0  0  0  0  0  0
    1.9530   47.5450   24.2210 O   0  0  0  0  0  0  0  0  0  0  0  0
    2.4960   48.9660   22.3870 C   0  0  0  0  0  0  0  0  0  0  0  0
    4.1350   51.2630   20.4390 C   0  0  0  0  0  0  0  0  0  0  0  0
    4.0470   52.5880   19.7940 C   0  0  0  0  0  0  0  0  0  0  0  0
    5.0160   53.3310   19.7270 O   0  0  0  0  0  0  0  0  0  0  0  0
    2.7340   52.9560   19.2420 C   0  0  0  0  0  0  0  0  0  0  0  0
    2.5440   54.1860   18.6090 C   0  0  0  0  0  0  0  0  0  0  0  0
    3.5530   55.0920   18.4720 O   0  0  0  0  0  0  0  0  0  0  0  0
    0.7239   56.5222   19.3428 H   0  0  0  0  0  0  0  0  0  0  0  0
    1.1843   57.6916   18.0594 H   0  0  0  0  0  0  0  0  0  0  0  0
   -0.4551   56.9574   18.0594 H   0  0  0  0  0  0  0  0  0  0  0  0
   -0.1990   53.7224   15.7975 H   0  0  0  0  0  0  0  0  0  0  0  0
   -1.0992   54.7134   13.8558 H   0  0  0  0  0  0  0  0  0  0  0  0
   -3.7971   56.0879   14.0598 H   0  0  0  0  0  0  0  0  0  0  0  0
   -2.3275   56.9832   14.5490 H   0  0  0  0  0  0  0  0  0  0  0  0
   -1.4160   56.4940   12.4750 H   0  0  0  0  0  0  0  0  0  0  0  0
   -3.9246   53.7733   14.4603 H   0  0  0  0  0  0  0  0  0  0  0  0
   -3.9140   53.8750   12.3070 H   0  0  0  0  0  0  0  0  0  0  0  0
   -1.3966   52.1129   14.0204 H   0  0  0  0  0  0  0  0  0  0  0  0
   -3.3150   51.0190   13.4670 H   0  0  0  0  0  0  0  0  0  0  0  0
   -2.9015   52.5276   16.6217 H   0  0  0  0  0  0  0  0  0  0  0  0
   -0.3610   51.7170   16.9400 H   0  0  0  0  0  0  0  0  0  0  0  0
   -0.4132   51.6684   18.9420 H   0  0  0  0  0  0  0  0  0  0  0  0
    4.1280   48.2094   19.4864 H   0  0  0  0  0  0  0  0  0  0  0  0
    4.1704   45.9629   20.5683 H   0  0  0  0  0  0  0  0  0  0  0  0
    4.0080   44.9140   23.0070 H   0  0  0  0  0  0  0  0  0  0  0  0
    1.6920   48.3370   24.7540 H   0  0  0  0  0  0  0  0  0  0  0  0
    2.0226   49.8147   22.9024 H   0  0  0  0  0  0  0  0  0  0  0  0
    5.0846   50.9212   20.8766 H   0  0  0  0  0  0  0  0  0  0  0  0
    3.3980   55.9360   17.9770 H   0  0  0  0  0  0  0  0  0  0  0  0
  1  2  1  0
  2  3  1  0
  3  4  2  0
  4  5  1  0
  5  6  1  0
  6  7  1  0
  7  8  1  0
  8  9  1  0
  9 10  1  0
  8 11  1  0
 11 12  1  0
 11 13  1  0
 13 14  1  0
 13 15  1  0
 15 16  1  0
  4 17  1  0
 17 18  2  0
 18 19  1  0
 19 20  1  0
 20 21  1  0
 21 22  1  0
 22 23  2  0
 23 24  1  0
 24 25  1  0
 24 26  2  0
 26 27  1  0
 26 28  1  0
 20 29  2  0
 29 30  1  0
 30 31  2  0
 30 32  1  0
 32 33  2  0
 33 34  1  0
 33  3  1  0
 15  6  1  0
 32 18  1  0
 28 21  2  0
  1 35  1  0
  1 36  1  0
  1 37  1  0
  6 38  1  6
  8 39  1  6
  9 40  1  0
  9 41  1  0
 10 42  1  0
 11 43  1  1
 12 44  1  0
 13 45  1  6
 14 46  1  0
 15 47  1  1
 16 48  1  0
 17 49  1  0
 22 50  1  0
 23 51  1  0
 25 52  1  0
 27 53  1  0
 28 54  1  0
 29 55  1  0
 34 56  1  0
M  END
>  <meeko>  (2) 
{"is_sidechain": [false], "free_energy": -9.025, "intermolecular_energy": -14.151, "internal_energy": -0.585}

$$$$
Nepitrin_120742_out
     RDKit          3D

 56 59  0  0  0  0  0  0  0  0999 V2000
    1.4400   57.4950   18.7350 C   0  0  0  0  0  0  0  0  0  0  0  0
    1.4310   56.3730   17.8550 O   0  0  0  0  0  0  0  0  0  0  0  0
    1.5560   55.1390   18.4250 C   0  0  0  0  0  0  0  0  0  0  0  0
    0.4210   54.4760   18.8950 C   0  0  0  0  0  0  0  0  0  0  0  0
   -0.8120   55.0520   18.7900 O   0  0  0  0  0  0  0  0  0  0  0  0
   -1.6150   54.6430   17.6830 C   0  0  2  0  0  0  0  0  0  0  0  0
   -1.0650   53.4650   17.0990 O   0  0  0  0  0  0  0  0  0  0  0  0
   -1.8390   52.9880   15.9960 C   0  0  2  0  0  0  0  0  0  0  0  0
   -1.2260   51.6660   15.5420 C   0  0  0  0  0  0  0  0  0  0  0  0
   -2.2020   50.9450   14.8120 O   0  0  0  0  0  0  0  0  0  0  0  0
   -1.8420   54.0260   14.8720 C   0  0  1  0  0  0  0  0  0  0  0  0
   -2.6840   53.5740   13.8150 O   0  0  0  0  0  0  0  0  0  0  0  0
   -2.3490   55.3760   15.3810 C   0  0  2  0  0  0  0  0  0  0  0  0
   -2.1030   56.3520   14.3680 O   0  0  0  0  0  0  0  0  0  0  0  0
   -1.6330   55.7860   16.6680 C   0  0  1  0  0  0  0  0  0  0  0  0
   -2.3140   56.8940   17.2560 O   0  0  0  0  0  0  0  0  0  0  0  0
    0.5390   53.2140   19.4790 C   0  0  0  0  0  0  0  0  0  0  0  0
    1.7940   52.6160   19.5910 C   0  0  0  0  0  0  0  0  0  0  0  0
    1.8480   51.3770   20.1740 O   0  0  0  0  0  0  0  0  0  0  0  0
    3.0820   50.7540   20.2920 C   0  0  0  0  0  0  0  0  0  0  0  0
    3.0250   49.4270   20.9390 C   0  0  0  0  0  0  0  0  0  0  0  0
    3.6030   48.3190   20.3160 C   0  0  0  0  0  0  0  0  0  0  0  0
    3.5490   47.0650   20.9270 C   0  0  0  0  0  0  0  0  0  0  0  0
    2.9160   46.9170   22.1610 C   0  0  0  0  0  0  0  0  0  0  0  0
    2.8690   45.6880   22.7460 O   0  0  0  0  0  0  0  0  0  0  0  0
    2.3360   48.0220   22.7850 C   0  0  0  0  0  0  0  0  0  0  0  0
    1.7150   47.8900   23.9900 O   0  0  0  0  0  0  0  0  0  0  0  0
    2.3910   49.2760   22.1750 C   0  0  0  0  0  0  0  0  0  0  0  0
    4.2410   51.2930   19.8840 C   0  0  0  0  0  0  0  0  0  0  0  0
    4.2380   52.6270   19.2540 C   0  0  0  0  0  0  0  0  0  0  0  0
    5.2720   53.1530   18.8660 O   0  0  0  0  0  0  0  0  0  0  0  0
    2.9260   53.2810   19.1210 C   0  0  0  0  0  0  0  0  0  0  0  0
    2.8120   54.5440   18.5360 C   0  0  0  0  0  0  0  0  0  0  0  0
    3.8970   55.2220   18.0640 O   0  0  0  0  0  0  0  0  0  0  0  0
    1.4372   57.1435   19.7773 H   0  0  0  0  0  0  0  0  0  0  0  0
    2.3430   58.0963   18.5533 H   0  0  0  0  0  0  0  0  0  0  0  0
    0.5468   58.1107   18.5533 H   0  0  0  0  0  0  0  0  0  0  0  0
   -2.6405   54.4156   18.0095 H   0  0  0  0  0  0  0  0  0  0  0  0
   -2.8875   52.8254   16.2862 H   0  0  0  0  0  0  0  0  0  0  0  0
   -0.3536   51.8622   14.9014 H   0  0  0  0  0  0  0  0  0  0  0  0
   -0.9011   51.0817   16.4155 H   0  0  0  0  0  0  0  0  0  0  0  0
   -2.7480   51.5750   14.2790 H   0  0  0  0  0  0  0  0  0  0  0  0
   -0.8119   54.1523   14.5075 H   0  0  0  0  0  0  0  0  0  0  0  0
   -2.1470   53.0620   13.1600 H   0  0  0  0  0  0  0  0  0  0  0  0
   -3.4238   55.2999   15.6025 H   0  0  0  0  0  0  0  0  0  0  0  0
   -2.8790   56.9630   14.3030 H   0  0  0  0  0  0  0  0  0  0  0  0
   -0.5976   56.0517   16.4084 H   0  0  0  0  0  0  0  0  0  0  0  0
   -2.5100   57.5690   16.5580 H   0  0  0  0  0  0  0  0  0  0  0  0
   -0.3555   52.6923   19.8500 H   0  0  0  0  0  0  0  0  0  0  0  0
    4.1016   48.4345   19.3423 H   0  0  0  0  0  0  0  0  0  0  0  0
    4.0057   46.1935   20.4352 H   0  0  0  0  0  0  0  0  0  0  0  0
    2.0370   45.1530   22.7080 H   0  0  0  0  0  0  0  0  0  0  0  0
    1.7800   48.6140   24.6620 H   0  0  0  0  0  0  0  0  0  0  0  0
    1.9345   50.1469   22.6680 H   0  0  0  0  0  0  0  0  0  0  0  0
    5.1853   50.7450   20.0181 H   0  0  0  0  0  0  0  0  0  0  0  0
    4.4600   55.7490   18.6850 H   0  0  0  0  0  0  0  0  0  0  0  0
  1  2  1  0
  2  3  1  0
  3  4  2  0
  4  5  1  0
  5  6  1  0
  6  7  1  0
  7  8  1  0
  8  9  1  0
  9 10  1  0
  8 11  1  0
 11 12  1  0
 11 13  1  0
 13 14  1  0
 13 15  1  0
 15 16  1  0
  4 17  1  0
 17 18  2  0
 18 19  1  0
 19 20  1  0
 20 21  1  0
 21 22  1  0
 22 23  2  0
 23 24  1  0
 24 25  1  0
 24 26  2  0
 26 27  1  0
 26 28  1  0
 20 29  2  0
 29 30  1  0
 30 31  2  0
 30 32  1  0
 32 33  2  0
 33 34  1  0
 33  3  1  0
 15  6  1  0
 32 18  1  0
 28 21  2  0
  1 35  1  0
  1 36  1  0
  1 37  1  0
  6 38  1  1
  8 39  1  1
  9 40  1  0
  9 41  1  0
 10 42  1  0
 11 43  1  6
 12 44  1  0
 13 45  1  1
 14 46  1  0
 15 47  1  6
 16 48  1  0
 17 49  1  0
 22 50  1  0
 23 51  1  0
 25 52  1  0
 27 53  1  0
 28 54  1  0
 29 55  1  0
 34 56  1  0
M  END
>  <meeko>  (3) 
{"is_sidechain": [false], "free_energy": -7.835, "intermolecular_energy": -12.141, "internal_energy": -0.812}

$$$$
Nepitrin_120742_out
     RDKit          3D

 56 59  0  0  0  0  0  0  0  0999 V2000
    5.9030   53.2220   20.4680 C   0  0  0  0  0  0  0  0  0  0  0  0
    4.6370   53.3800   21.1060 O   0  0  0  0  0  0  0  0  0  0  0  0
    3.5280   53.1470   20.3470 C   0  0  0  0  0  0  0  0  0  0  0  0
    3.1210   51.8360   20.0970 C   0  0  0  0  0  0  0  0  0  0  0  0
    3.8250   50.7830   20.6070 O   0  0  0  0  0  0  0  0  0  0  0  0
    3.0630   49.6580   21.0460 C   0  0  2  0  0  0  0  0  0  0  0  0
    2.8680   49.7310   22.4560 O   0  0  0  0  0  0  0  0  0  0  0  0
    2.0880   48.6430   22.9580 C   0  0  2  0  0  0  0  0  0  0  0  0
    1.8440   48.8990   24.4420 C   0  0  0  0  0  0  0  0  0  0  0  0
    0.8700   47.9800   24.9020 O   0  0  0  0  0  0  0  0  0  0  0  0
    2.8250   47.3230   22.7250 C   0  0  1  0  0  0  0  0  0  0  0  0
    2.0010   46.2420   23.1530 O   0  0  0  0  0  0  0  0  0  0  0  0
    3.1640   47.1440   21.2440 C   0  0  2  0  0  0  0  0  0  0  0  0
    4.0500   46.0300   21.1250 O   0  0  0  0  0  0  0  0  0  0  0  0
    3.8370   48.3930   20.6770 C   0  0  1  0  0  0  0  0  0  0  0  0
    3.8860   48.2990   19.2530 O   0  0  0  0  0  0  0  0  0  0  0  0
    1.9880   51.5890   19.3210 C   0  0  0  0  0  0  0  0  0  0  0  0
    1.2610   52.6580   18.7960 C   0  0  0  0  0  0  0  0  0  0  0  0
    0.1570   52.3530   18.0420 O   0  0  0  0  0  0  0  0  0  0  0  0
   -0.5900   53.3960   17.5130 C   0  0  0  0  0  0  0  0  0  0  0  0
   -1.7520   52.9560   16.7140 C   0  0  0  0  0  0  0  0  0  0  0  0
   -1.5670   52.1210   15.6090 C   0  0  0  0  0  0  0  0  0  0  0  0
   -2.6640   51.7060   14.8540 C   0  0  0  0  0  0  0  0  0  0  0  0
   -3.9480   52.1240   15.2010 C   0  0  0  0  0  0  0  0  0  0  0  0
   -5.0110   51.7120   14.4550 O   0  0  0  0  0  0  0  0  0  0  0  0
   -4.1370   52.9580   16.3030 C   0  0  0  0  0  0  0  0  0  0  0  0
   -5.3860   53.3730   16.6520 O   0  0  0  0  0  0  0  0  0  0  0  0
   -3.0400   53.3730   17.0590 C   0  0  0  0  0  0  0  0  0  0  0  0
   -0.2960   54.6950   17.6780 C   0  0  0  0  0  0  0  0  0  0  0  0
    0.8840   55.0750   18.4790 C   0  0  0  0  0  0  0  0  0  0  0  0
    1.1850   56.2470   18.6560 O   0  0  0  0  0  0  0  0  0  0  0  0
    1.6690   53.9670   19.0470 C   0  0  0  0  0  0  0  0  0  0  0  0
    2.8030   54.2180   19.8220 C   0  0  0  0  0  0  0  0  0  0  0  0
    3.2300   55.4850   20.0890 O   0  0  0  0  0  0  0  0  0  0  0  0
    6.6887   53.1239   21.2316 H   0  0  0  0  0  0  0  0  0  0  0  0
    5.8871   52.3189   19.8402 H   0  0  0  0  0  0  0  0  0  0  0  0
    6.1095   54.1013   19.8402 H   0  0  0  0  0  0  0  0  0  0  0  0
    2.0743   49.6456   20.5640 H   0  0  0  0  0  0  0  0  0  0  0  0
    1.1227   48.5697   22.4357 H   0  0  0  0  0  0  0  0  0  0  0  0
    2.7805   48.7584   25.0017 H   0  0  0  0  0  0  0  0  0  0  0  0
    1.4911   49.9298   24.5937 H   0  0  0  0  0  0  0  0  0  0  0  0
    1.0210   47.0990   24.4790 H   0  0  0  0  0  0  0  0  0  0  0  0
    3.7620   47.3371   23.3010 H   0  0  0  0  0  0  0  0  0  0  0  0
    2.1640   46.0620   24.1120 H   0  0  0  0  0  0  0  0  0  0  0  0
    2.2372   46.9733   20.6767 H   0  0  0  0  0  0  0  0  0  0  0  0
    4.6030   45.9600   21.9430 H   0  0  0  0  0  0  0  0  0  0  0  0
    4.8490   48.4546   21.1036 H   0  0  0  0  0  0  0  0  0  0  0  0
    4.3080   47.4420   18.9930 H   0  0  0  0  0  0  0  0  0  0  0  0
    1.6690   50.5549   19.1238 H   0  0  0  0  0  0  0  0  0  0  0  0
   -0.5545   51.7904   15.3340 H   0  0  0  0  0  0  0  0  0  0  0  0
   -2.5160   51.0487   13.9845 H   0  0  0  0  0  0  0  0  0  0  0  0
   -5.7790   52.3210   14.3090 H   0  0  0  0  0  0  0  0  0  0  0  0
   -5.9110   53.9370   16.0310 H   0  0  0  0  0  0  0  0  0  0  0  0
   -3.1897   54.0299   17.9285 H   0  0  0  0  0  0  0  0  0  0  0  0
   -0.9288   55.4696   17.2203 H   0  0  0  0  0  0  0  0  0  0  0  0
    3.2050   55.8310   21.0170 H   0  0  0  0  0  0  0  0  0  0  0  0
  1  2  1  0
  2  3  1  0
  3  4  2  0
  4  5  1  0
  5  6  1  0
  6  7  1  0
  7  8  1  0
  8  9  1  0
  9 10  1  0
  8 11  1  0
 11 12  1  0
 11 13  1  0
 13 14  1  0
 13 15  1  0
 15 16  1  0
  4 17  1  0
 17 18  2  0
 18 19  1  0
 19 20  1  0
 20 21  1  0
 21 22  1  0
 22 23  2  0
 23 24  1  0
 24 25  1  0
 24 26  2  0
 26 27  1  0
 26 28  1  0
 20 29  2  0
 29 30  1  0
 30 31  2  0
 30 32  1  0
 32 33  2  0
 33 34  1  0
 33  3  1  0
 15  6  1  0
 32 18  1  0
 28 21  2  0
  1 35  1  0
  1 36  1  0
  1 37  1  0
  6 38  1  6
  8 39  1  6
  9 40  1  0
  9 41  1  0
 10 42  1  0
 11 43  1  1
 12 44  1  0
 13 45  1  6
 14 46  1  0
 15 47  1  1
 16 48  1  0
 17 49  1  0
 22 50  1  0
 23 51  1  0
 25 52  1  0
 27 53  1  0
 28 54  1  0
 29 55  1  0
 34 56  1  0
M  END
>  <meeko>  (4) 
{"is_sidechain": [false], "free_energy": -7.245, "intermolecular_energy": -11.006, "internal_energy": -1.065}

$$$$
