SCHEMBL29564401
     RDKit          3D

 40 44  0  0  1  0  0  0  0  0999 V2000
    3.3941    3.8190    0.5390 Cl  0  0  0  0  0  0  0  0  0  0  0  0
    8.9918    2.9277    0.7393 Cl  0  0  0  0  0  0  0  0  0  0  0  0
    1.5068   -2.2944    0.5678 O   0  0  0  0  0  0  0  0  0  0  0  0
   -9.6792    0.7360   -1.4383 O   0  0  0  0  0  0  0  0  0  0  0  0
    1.3731   -4.4026   -0.3582 O   0  0  0  0  0  0  0  0  0  0  0  0
   -8.0674    0.9804    0.1626 N   0  0  0  0  0  0  0  0  0  0  0  0
    6.0333    2.2517    0.1116 N   0  0  0  0  0  0  0  0  0  0  0  0
   -3.9479   -0.4022    0.4601 C   0  0  2  0  0  0  0  0  0  0  0  0
   -2.4487   -0.6624    0.8870 C   0  0  2  0  0  0  0  0  0  0  0  0
   -4.1845    1.0586   -0.0183 C   0  0  2  0  0  0  0  0  0  0  0  0
   -1.5301   -0.2379   -0.3021 C   0  0  1  0  0  0  0  0  0  0  0  0
   -5.6593    1.3246   -0.4554 C   0  0  2  0  0  0  0  0  0  0  0  0
   -6.6758    0.9216    0.6512 C   0  0  2  0  0  0  0  0  0  0  0  0
   -4.9683   -0.7793    1.5520 C   0  0  0  0  0  0  0  0  0  0  0  0
   -3.1739    1.4772   -1.1018 C   0  0  0  0  0  0  0  0  0  0  0  0
   -1.7269    1.2318   -0.6846 C   0  0  0  0  0  0  0  0  0  0  0  0
   -2.2133   -2.1795    1.1437 C   0  0  0  0  0  0  0  0  0  0  0  0
   -6.4118   -0.5240    1.1264 C   0  0  0  0  0  0  0  0  0  0  0  0
   -0.0497   -0.5619   -0.0655 C   0  0  0  0  0  0  0  0  0  0  0  0
   -2.1003    0.1102    2.1869 C   0  0  0  0  0  0  0  0  0  0  0  0
   -6.0440    0.6356   -1.7776 C   0  0  0  0  0  0  0  0  0  0  0  0
   -0.7418   -2.5413    1.3568 C   0  0  0  0  0  0  0  0  0  0  0  0
    0.1480   -2.0499    0.2201 C   0  0  2  0  0  0  0  0  0  0  0  0
   -6.5879    1.8963    1.8443 C   0  0  0  0  0  0  0  0  0  0  0  0
   -7.4429    1.0422   -2.2068 C   0  0  0  0  0  0  0  0  0  0  0  0
   -8.4918    0.8715   -1.1388 C   0  0  0  0  0  0  0  0  0  0  0  0
    1.9985   -3.5217    0.2172 C   0  0  0  0  0  0  0  0  0  0  0  0
    3.4333   -3.6520    0.6749 C   0  0  0  0  0  0  0  0  0  0  0  0
    4.3930   -4.0098   -0.4620 C   0  0  0  0  0  0  0  0  0  0  0  0
    4.4486   -2.9622   -1.5834 C   0  0  0  0  0  0  0  0  0  0  0  0
    4.8669   -1.5854   -1.1357 C   0  0  0  0  0  0  0  0  0  0  0  0
    4.3914   -0.4592   -1.8073 C   0  0  0  0  0  0  0  0  0  0  0  0
    5.7298   -1.4373   -0.0498 C   0  0  0  0  0  0  0  0  0  0  0  0
    4.7786    0.8152   -1.3931 C   0  0  0  0  0  0  0  0  0  0  0  0
    6.1172   -0.1631    0.3645 C   0  0  0  0  0  0  0  0  0  0  0  0
    5.6416    0.9632   -0.3071 C   0  0  0  0  0  0  0  0  0  0  0  0
    5.7215    2.7151    1.4492 C   0  0  0  0  0  0  0  0  0  0  0  0
    6.7405    3.1346   -0.7945 C   0  0  0  0  0  0  0  0  0  0  0  0
    4.2193    2.7324    1.6842 C   0  0  0  0  0  0  0  0  0  0  0  0
    8.2181    2.7811   -0.8584 C   0  0  0  0  0  0  0  0  0  0  0  0
  1 39  1  0
  2 40  1  0
 23  3  1  1
  3 27  1  0
  4 26  2  0
  5 27  2  0
  6 13  1  0
  6 26  1  0
  7 36  1  0
  7 37  1  0
  7 38  1  0
  8  9  1  0
  8 10  1  0
  8 14  1  1
  9 11  1  0
  9 17  1  0
  9 20  1  1
 10 12  1  0
 10 15  1  6
 11 16  1  1
 11 19  1  0
 12 13  1  0
 12 21  1  6
 13 18  1  0
 13 24  1  1
 14 18  1  0
 15 16  1  0
 17 22  1  0
 19 23  1  0
 21 25  1  0
 22 23  1  0
 25 26  1  0
 27 28  1  0
 28 29  1  0
 29 30  1  0
 30 31  1  0
 31 32  1  0
 31 33  2  0
 32 34  2  0
 33 35  1  0
 34 36  1  0
 35 36  2  0
 37 39  1  0
 38 40  1  0
M  END
>  <PUBCHEM_COMPOUND_CID>  (1) 
10008594

>  <PUBCHEM_CONFORMER_RMSD>  (1) 
1.4

>  <PUBCHEM_CONFORMER_DIVERSEORDER>  (1) 
1
39
38
35
21
79
80
72
4
14
10
51
5
64
27
65
22
73
55
12
91
90
15
44
9
87
20
67
86
28
30
69
47
32
68
89
24
11
33
63
16
6
78
83
49
56
88
57
26
8
40
71
3
52
2
61
18
77
29
42
50
85
36
70
41
23
34
59
7
82
37
66
19
76
43
46
58
54
45
62
92
25
74
31
13
81
48
60
75
84
53
17

>  <PUBCHEM_MMFF94_PARTIAL_CHARGES>  (1) 
29
1 -0.29
13 0.3
2 -0.29
23 0.28
25 0.06
26 0.57
27 0.66
28 0.06
3 -0.43
30 0.14
31 -0.14
32 -0.15
33 -0.15
34 -0.15
35 -0.15
36 0.1
37 0.37
38 0.37
39 0.29
4 -0.57
40 0.29
5 -0.57
6 -0.73
65 0.37
7 -0.84
77 0.15
78 0.15
79 0.15
80 0.15

>  <PUBCHEM_EFFECTIVE_ROTOR_COUNT>  (1) 
13.2

>  <PUBCHEM_PHARMACOPHORE_FEATURES>  (1) 
9
1 4 acceptor
1 5 acceptor
1 6 donor
1 7 cation
6 31 32 33 34 35 36 rings
6 6 12 13 21 25 26 rings
6 8 10 12 13 14 18 rings
6 8 9 10 11 15 16 rings
6 9 11 17 19 22 23 rings

>  <PUBCHEM_HEAVY_ATOM_COUNT>  (1) 
40

>  <PUBCHEM_ATOM_DEF_STEREO_COUNT>  (1) 
4

>  <PUBCHEM_ATOM_UDEF_STEREO_COUNT>  (1) 
3

>  <PUBCHEM_BOND_DEF_STEREO_COUNT>  (1) 
0

>  <PUBCHEM_BOND_UDEF_STEREO_COUNT>  (1) 
0

>  <PUBCHEM_ISOTOPIC_ATOM_COUNT>  (1) 
0

>  <PUBCHEM_COMPONENT_COUNT>  (1) 
1

>  <PUBCHEM_CACTVS_TAUTO_COUNT>  (1) 
2

>  <PUBCHEM_CONFORMER_ID>  (1) 
0098B81200000001

>  <PUBCHEM_MMFF94_ENERGY>  (1) 
123.6611

>  <PUBCHEM_FEATURE_SELFOVERLAP>  (1) 
45.748

>  <PUBCHEM_SHAPE_FINGERPRINT>  (1) 
10533779 1 18339636854605392160
10675989 125 18343304778082175096
11007060 377 18115317674966275099
11693224 71 18261384572531040606
12655387 17 14562802240555350727
12925494 130 18337111262920268738
13811026 1 18334016107723463067
14117953 113 18343589530461355614
15082195 135 18272930492753393402
15150948 74 18410571821354058660
15183329 4 16702306766995823177
15351339 4 18343300332258397536
15890870 6 18410014373532500004
16067689 302 18412832400133150727
19053607 189 18042138703374153982
20737093 193 15619140668088389968
21033648 29 17821451274249522670
21049683 118 17530684299314498202
23522609 53 17559410067355406611
23559900 14 18041006107528763895
23729417 116 16614212469334191894
3918712 181 18334856143023263424
4112364 45 18114168732459961546
4169191 19 18411705383065040361
44317340 157 18341616984066681030
4760202 170 18267293254226228581
5109719 28 18408608045602894640
6176135 31 18188778365768494188

>  <PUBCHEM_SHAPE_MULTIPOLES>  (1) 
799.35
27.58
4.92
1.81
16.9
2.96
-0.08
-24.02
-6.24
-12.17
0.57
1.75
-0.4
2.67

>  <PUBCHEM_SHAPE_SELFOVERLAP>  (1) 
1652.749

>  <PUBCHEM_SHAPE_VOLUME>  (1) 
454.9

>  <PUBCHEM_COORDINATE_TYPE>  (1) 
2
5
10

$$$$
