9998128
  -OEChem-09272610523D

 43 47  0     0  0  0  0  0  0999 V2000
   -0.6871    1.8431   -0.7103 N   0  0  0  0  0  0  0  0  0  0  0  0
    0.7167   -0.0158   -0.3789 N   0  0  0  0  0  0  0  0  0  0  0  0
    3.0221    0.2821    0.2561 N   0  0  0  0  0  0  0  0  0  0  0  0
   -5.6951   -0.2643    0.1944 N   0  0  0  0  0  0  0  0  0  0  0  0
   -5.5408   -1.0045    1.3047 N   0  0  0  0  0  0  0  0  0  0  0  0
    1.0228   -2.6115   -0.3645 N   0  0  0  0  0  0  0  0  0  0  0  0
    1.6248    2.2031   -0.0725 C   0  0  0  0  0  0  0  0  0  0  0  0
    0.5892    1.3244   -0.3776 C   0  0  0  0  0  0  0  0  0  0  0  0
   -1.9871    1.3418   -0.5392 C   0  0  0  0  0  0  0  0  0  0  0  0
   -3.5772    0.0014    0.6971 C   0  0  0  0  0  0  0  0  0  0  0  0
   -4.5538    0.3654   -0.2233 C   0  0  0  0  0  0  0  0  0  0  0  0
    2.8601    1.6167    0.2478 C   0  0  0  0  0  0  0  0  0  0  0  0
   -2.2701    0.4930    0.5441 C   0  0  0  0  0  0  0  0  0  0  0  0
   -2.9954    1.6880   -1.4478 C   0  0  0  0  0  0  0  0  0  0  0  0
   -4.3014    1.2069   -1.3090 C   0  0  0  0  0  0  0  0  0  0  0  0
    1.9419   -0.4616   -0.0579 C   0  0  0  0  0  0  0  0  0  0  0  0
    1.4669    3.5999   -0.0778 C   0  0  0  0  0  0  0  0  0  0  0  0
    3.9206    2.4642    0.5590 C   0  0  0  0  0  0  0  0  0  0  0  0
   -4.2512   -0.8401    1.6079 C   0  0  0  0  0  0  0  0  0  0  0  0
    2.1232   -1.8898   -0.0473 C   0  0  0  0  0  0  0  0  0  0  0  0
    2.5435    4.4230    0.2370 C   0  0  0  0  0  0  0  0  0  0  0  0
    3.7716    3.8542    0.5557 C   0  0  0  0  0  0  0  0  0  0  0  0
    3.3500   -2.4548    0.2710 C   0  0  0  0  0  0  0  0  0  0  0  0
    1.1612   -3.9562   -0.3618 C   0  0  0  0  0  0  0  0  0  0  0  0
    3.4530   -3.8414    0.2630 C   0  0  0  0  0  0  0  0  0  0  0  0
    2.3425   -4.6138   -0.0585 C   0  0  0  0  0  0  0  0  0  0  0  0
   -0.0509   -4.7533   -0.7114 C   0  0  0  0  0  0  0  0  0  0  0  0
   -0.6389    2.6191   -1.3649 H   0  0  0  0  0  0  0  0  0  0  0  0
   -1.5067    0.2220    1.2675 H   0  0  0  0  0  0  0  0  0  0  0  0
   -2.7711    2.3450   -2.2861 H   0  0  0  0  0  0  0  0  0  0  0  0
   -5.0792    1.4771   -2.0145 H   0  0  0  0  0  0  0  0  0  0  0  0
    0.5193    4.0756   -0.3142 H   0  0  0  0  0  0  0  0  0  0  0  0
    4.8922    2.0440    0.8122 H   0  0  0  0  0  0  0  0  0  0  0  0
   -3.8542   -1.3403    2.4799 H   0  0  0  0  0  0  0  0  0  0  0  0
   -6.6118   -0.2305   -0.2338 H   0  0  0  0  0  0  0  0  0  0  0  0
    2.4254    5.5023    0.2359 H   0  0  0  0  0  0  0  0  0  0  0  0
    4.6171    4.4896    0.8033 H   0  0  0  0  0  0  0  0  0  0  0  0
    4.2263   -1.8674    0.5243 H   0  0  0  0  0  0  0  0  0  0  0  0
    4.3970   -4.3196    0.5069 H   0  0  0  0  0  0  0  0  0  0  0  0
    2.4106   -5.6963   -0.0682 H   0  0  0  0  0  0  0  0  0  0  0  0
    0.1370   -5.3610   -1.6022 H   0  0  0  0  0  0  0  0  0  0  0  0
   -0.3270   -5.4108    0.1191 H   0  0  0  0  0  0  0  0  0  0  0  0
   -0.9039   -4.0998   -0.9223 H   0  0  0  0  0  0  0  0  0  0  0  0
  1  8  1  0  0  0  0
  1  9  1  0  0  0  0
  1 28  1  0  0  0  0
  2  8  2  0  0  0  0
  2 16  1  0  0  0  0
  3 12  1  0  0  0  0
  3 16  2  0  0  0  0
  4  5  1  0  0  0  0
  4 11  1  0  0  0  0
  4 35  1  0  0  0  0
  5 19  2  0  0  0  0
  6 20  1  0  0  0  0
  6 24  2  0  0  0  0
  7  8  1  0  0  0  0
  7 12  1  0  0  0  0
  7 17  2  0  0  0  0
  9 13  2  0  0  0  0
  9 14  1  0  0  0  0
 10 11  2  0  0  0  0
 10 13  1  0  0  0  0
 10 19  1  0  0  0  0
 11 15  1  0  0  0  0
 12 18  2  0  0  0  0
 13 29  1  0  0  0  0
 14 15  2  0  0  0  0
 14 30  1  0  0  0  0
 15 31  1  0  0  0  0
 16 20  1  0  0  0  0
 17 21  1  0  0  0  0
 17 32  1  0  0  0  0
 18 22  1  0  0  0  0
 18 33  1  0  0  0  0
 19 34  1  0  0  0  0
 20 23  2  0  0  0  0
 21 22  2  0  0  0  0
 21 36  1  0  0  0  0
 22 37  1  0  0  0  0
 23 25  1  0  0  0  0
 23 38  1  0  0  0  0
 24 26  1  0  0  0  0
 24 27  1  0  0  0  0
 25 26  2  0  0  0  0
 25 39  1  0  0  0  0
 26 40  1  0  0  0  0
 27 41  1  0  0  0  0
 27 42  1  0  0  0  0
 27 43  1  0  0  0  0
M  END
> <PUBCHEM_COMPOUND_CID>
9998128

> <PUBCHEM_CONFORMER_RMSD>
0.6

> <PUBCHEM_CONFORMER_DIVERSEORDER>
3
55
84
46
9
58
43
72
53
59
15
69
77
68
44
10
74
24
73
28
71
33
41
51
56
67
70
57
50
78
47
35
11
42
75
64
49
82
61
12
26
76
16
27
22
63
14
62
21
81
45
2
60
13
86
25
65
34
83
48
52
80
40
4
66
79
1
30
19
85
38
29
54
32
31
20
37
36
7
39
8
17
23
18
5
6

> <PUBCHEM_MMFF94_PARTIAL_CHARGES>
38
1 -0.6
11 -0.15
12 0.31
13 -0.15
14 -0.15
15 -0.15
16 0.62
17 -0.15
18 -0.15
19 0.14
2 -0.62
20 0.31
21 -0.15
22 -0.15
23 -0.15
24 0.17
25 -0.15
26 -0.15
27 0.14
28 0.4
29 0.15
3 -0.62
30 0.15
31 0.15
32 0.15
33 0.15
34 0.15
35 0.27
36 0.15
37 0.15
38 0.15
39 0.15
4 0.3
40 0.15
5 -0.71
6 -0.62
8 0.41
9 0.1

> <PUBCHEM_EFFECTIVE_ROTOR_COUNT>
3

> <PUBCHEM_PHARMACOPHORE_FEATURES>
11
1 1 donor
1 4 donor
1 5 acceptor
1 6 acceptor
3 1 2 8 cation
3 2 3 16 cation
5 4 5 10 11 19 rings
6 2 3 7 8 12 16 rings
6 6 20 23 24 25 26 rings
6 7 12 17 18 21 22 rings
6 9 10 11 13 14 15 rings

> <PUBCHEM_HEAVY_ATOM_COUNT>
27

> <PUBCHEM_ATOM_DEF_STEREO_COUNT>
0

> <PUBCHEM_ATOM_UDEF_STEREO_COUNT>
0

> <PUBCHEM_BOND_DEF_STEREO_COUNT>
0

> <PUBCHEM_BOND_UDEF_STEREO_COUNT>
0

> <PUBCHEM_ISOTOPIC_ATOM_COUNT>
0

> <PUBCHEM_COMPONENT_COUNT>
1

> <PUBCHEM_CACTVS_TAUTO_COUNT>
6

> <PUBCHEM_CONFORMER_ID>
00988F3000000003

> <PUBCHEM_MMFF94_ENERGY>
87.0906

> <PUBCHEM_FEATURE_SELFOVERLAP>
56.085

> <PUBCHEM_SHAPE_FINGERPRINT>
10074138 170 17475769414466250248
10411042 1 18051129194652757590
1100329 8 18340764953381762338
11070050 100 17987793162942606368
11227688 84 17837480856650120526
114674 6 18260271828156654915
12107183 9 17910405991923185297
12553582 1 17836096575905242198
1361 2 18266738176767778507
138480 1 18267299829282263318
140371 6 17618216205358212292
14363568 33 18339093604848981174
14659021 117 16967724170915032178
14790565 3 18050006889454057388
14844126 61 16894552763150092594
14863182 85 18261968451881240252
14866123 147 18050843627172892656
15351339 4 16674139169294478661
15775530 1 17754145640697309652
15927050 60 18196370540955492606
17138139 8 17197950266810303655
17859628 70 18410581686296994291
19319366 153 18129095796090451633
1979834 28 18117012163712585417
20028762 73 18200589336421241174
20693207 138 17969222244340922989
21120745 212 17694237573474568108
21133410 171 16384749946816720447
21133410 32 16303508333408632274
21133410 38 18056211391527883419
21197605 99 17974860767734066963
21796203 349 18122936177238318250
221490 88 18263643974309882078
23559900 14 18264198128571551945
23845131 108 17980191212467706297
3178227 256 18410019853478298736
3421961 26 18338517434859219489
3886686 26 17478004674778221104
4015057 19 18193820562926857421
4403749 210 17832134296887338393
463206 1 17759809143524066499
50150288 127 17272866548294825287
5309563 4 18123468284888992679
613672 6 17905590121638505102
621550 34 18335702792920450237
6442390 28 18122066678410112556
653340 110 17332798856528262688
6669772 16 18270407204426034236
6673363 416 17981899537166438318
6679774 75 18114731738421992514
7399639 24 18334855078034807053
9658208 31 17909276024550658080
9709674 26 18261950752790355669
9777508 108 17548973807521572072

> <PUBCHEM_SHAPE_MULTIPOLES>
525.76
9.68
6.96
1.03
14.25
4.7
0.05
-1.05
2.32
-10.96
-0.45
1.29
-0.04
1.61

> <PUBCHEM_SHAPE_SELFOVERLAP>
1192.685

> <PUBCHEM_SHAPE_VOLUME>
271.6

> <PUBCHEM_COORDINATE_TYPE>
2
5
10

$$$$
