Nepetin_5317284_out
     RDKit          3D

 35 37  0  0  0  0  0  0  0  0999 V2000
  -51.1970    0.9380   17.5910 C   0  0  0  0  0  0  0  0  0  0  0  0
  -51.0540   -0.3180   18.2510 O   0  0  0  0  0  0  0  0  0  0  0  0
  -51.2480   -0.3320   19.6020 C   0  0  0  0  0  0  0  0  0  0  0  0
  -50.2100    0.0430   20.4540 C   0  0  0  0  0  0  0  0  0  0  0  0
  -49.0020    0.4240   19.9490 O   0  0  0  0  0  0  0  0  0  0  0  0
  -50.3990    0.0310   21.8360 C   0  0  0  0  0  0  0  0  0  0  0  0
  -51.6300   -0.3570   22.3640 C   0  0  0  0  0  0  0  0  0  0  0  0
  -51.7560   -0.3490   23.7300 O   0  0  0  0  0  0  0  0  0  0  0  0
  -52.9710   -0.7220   24.2840 C   0  0  0  0  0  0  0  0  0  0  0  0
  -52.9960   -0.6850   25.7590 C   0  0  0  0  0  0  0  0  0  0  0  0
  -52.2430   -1.6000   26.4980 C   0  0  0  0  0  0  0  0  0  0  0  0
  -52.2660   -1.5640   27.8920 C   0  0  0  0  0  0  0  0  0  0  0  0
  -53.0430   -0.6120   28.5520 C   0  0  0  0  0  0  0  0  0  0  0  0
  -53.0580   -0.5870   29.9150 O   0  0  0  0  0  0  0  0  0  0  0  0
  -53.7960    0.3050   27.8180 C   0  0  0  0  0  0  0  0  0  0  0  0
  -54.5590    1.2390   28.4520 O   0  0  0  0  0  0  0  0  0  0  0  0
  -53.7730    0.2680   26.4230 C   0  0  0  0  0  0  0  0  0  0  0  0
  -54.0410   -1.1100   23.5690 C   0  0  0  0  0  0  0  0  0  0  0  0
  -53.9540   -1.1380   22.0940 C   0  0  0  0  0  0  0  0  0  0  0  0
  -54.9050   -1.4810   21.4060 O   0  0  0  0  0  0  0  0  0  0  0  0
  -52.6670   -0.7310   21.5110 C   0  0  0  0  0  0  0  0  0  0  0  0
  -52.4820   -0.7210   20.1260 C   0  0  0  0  0  0  0  0  0  0  0  0
  -53.4720   -1.0800   19.2620 O   0  0  0  0  0  0  0  0  0  0  0  0
  -51.2881    1.7378   18.3406 H   0  0  0  0  0  0  0  0  0  0  0  0
  -50.3142    1.1241   16.9616 H   0  0  0  0  0  0  0  0  0  0  0  0
  -52.0990    0.9209   16.9616 H   0  0  0  0  0  0  0  0  0  0  0  0
  -48.9590    0.9270   19.0970 H   0  0  0  0  0  0  0  0  0  0  0  0
  -49.5794    0.3267   22.5074 H   0  0  0  0  0  0  0  0  0  0  0  0
  -51.6298   -2.3514   25.9790 H   0  0  0  0  0  0  0  0  0  0  0  0
  -51.6715   -2.2862   28.4709 H   0  0  0  0  0  0  0  0  0  0  0  0
  -53.7350   -0.0450   30.3910 H   0  0  0  0  0  0  0  0  0  0  0  0
  -55.4320    1.5070   28.0700 H   0  0  0  0  0  0  0  0  0  0  0  0
  -54.3678    0.9906   25.8450 H   0  0  0  0  0  0  0  0  0  0  0  0
  -54.9717   -1.4036   24.0765 H   0  0  0  0  0  0  0  0  0  0  0  0
  -53.7250   -0.4760   18.5200 H   0  0  0  0  0  0  0  0  0  0  0  0
  1  2  1  0
  2  3  1  0
  3  4  2  0
  4  5  1  0
  4  6  1  0
  6  7  2  0
  7  8  1  0
  8  9  1  0
  9 10  1  0
 10 11  1  0
 11 12  2  0
 12 13  1  0
 13 14  1  0
 13 15  2  0
 15 16  1  0
 15 17  1  0
  9 18  2  0
 18 19  1  0
 19 20  2  0
 19 21  1  0
 21 22  2  0
 22 23  1  0
 22  3  1  0
 21  7  1  0
 17 10  2  0
  1 24  1  0
  1 25  1  0
  1 26  1  0
  5 27  1  0
  6 28  1  0
 11 29  1  0
 12 30  1  0
 14 31  1  0
 16 32  1  0
 17 33  1  0
 18 34  1  0
 23 35  1  0
M  END
>  <meeko>  (1) 
{"is_sidechain": [false], "free_energy": -7.675, "intermolecular_energy": -9.47, "internal_energy": -0.262}

$$$$
Nepetin_5317284_out
     RDKit          3D

 35 37  0  0  0  0  0  0  0  0999 V2000
  -51.1620   -1.0380   17.1090 C   0  0  0  0  0  0  0  0  0  0  0  0
  -52.2810   -0.2790   17.5590 O   0  0  0  0  0  0  0  0  0  0  0  0
  -52.2460    0.1700   18.8470 C   0  0  0  0  0  0  0  0  0  0  0  0
  -51.5870    1.3630   19.1470 C   0  0  0  0  0  0  0  0  0  0  0  0
  -50.9780    2.0840   18.1620 O   0  0  0  0  0  0  0  0  0  0  0  0
  -51.5460    1.8300   20.4600 C   0  0  0  0  0  0  0  0  0  0  0  0
  -52.1650    1.1010   21.4750 C   0  0  0  0  0  0  0  0  0  0  0  0
  -52.0910    1.6100   22.7470 O   0  0  0  0  0  0  0  0  0  0  0  0
  -52.7050    0.9100   23.7750 C   0  0  0  0  0  0  0  0  0  0  0  0
  -52.5590    1.5410   25.1010 C   0  0  0  0  0  0  0  0  0  0  0  0
  -52.9660    0.8610   26.2520 C   0  0  0  0  0  0  0  0  0  0  0  0
  -52.8270    1.4570   27.5040 C   0  0  0  0  0  0  0  0  0  0  0  0
  -52.2810    2.7360   27.6110 C   0  0  0  0  0  0  0  0  0  0  0  0
  -52.1510    3.3090   28.8420 O   0  0  0  0  0  0  0  0  0  0  0  0
  -51.8720    3.4190   26.4660 C   0  0  0  0  0  0  0  0  0  0  0  0
  -51.3380    4.6690   26.5570 O   0  0  0  0  0  0  0  0  0  0  0  0
  -52.0120    2.8220   25.2120 C   0  0  0  0  0  0  0  0  0  0  0  0
  -53.3620   -0.2500   23.6130 C   0  0  0  0  0  0  0  0  0  0  0  0
  -53.4680   -0.8400   22.2630 C   0  0  0  0  0  0  0  0  0  0  0  0
  -54.0590   -1.8940   22.0720 O   0  0  0  0  0  0  0  0  0  0  0  0
  -52.8240   -0.0910   21.1740 C   0  0  0  0  0  0  0  0  0  0  0  0
  -52.8680   -0.5620   19.8600 C   0  0  0  0  0  0  0  0  0  0  0  0
  -53.5020   -1.7210   19.5280 O   0  0  0  0  0  0  0  0  0  0  0  0
  -50.6031   -1.4171   17.9772 H   0  0  0  0  0  0  0  0  0  0  0  0
  -51.5138   -1.8847   16.5012 H   0  0  0  0  0  0  0  0  0  0  0  0
  -50.5054   -0.3981   16.5012 H   0  0  0  0  0  0  0  0  0  0  0  0
  -50.2030    2.6620   18.3790 H   0  0  0  0  0  0  0  0  0  0  0  0
  -51.0268    2.7709   20.6947 H   0  0  0  0  0  0  0  0  0  0  0  0
  -53.3973   -0.1476   26.1695 H   0  0  0  0  0  0  0  0  0  0  0  0
  -53.1479    0.9187   28.4080 H   0  0  0  0  0  0  0  0  0  0  0  0
  -51.4000    3.0500   29.4310 H   0  0  0  0  0  0  0  0  0  0  0  0
  -51.7470    5.4200   26.0580 H   0  0  0  0  0  0  0  0  0  0  0  0
  -51.6908    3.3614   24.3088 H   0  0  0  0  0  0  0  0  0  0  0  0
  -53.8169   -0.7559   24.4774 H   0  0  0  0  0  0  0  0  0  0  0  0
  -54.4080   -1.9080   19.8820 H   0  0  0  0  0  0  0  0  0  0  0  0
  1  2  1  0
  2  3  1  0
  3  4  2  0
  4  5  1  0
  4  6  1  0
  6  7  2  0
  7  8  1  0
  8  9  1  0
  9 10  1  0
 10 11  1  0
 11 12  2  0
 12 13  1  0
 13 14  1  0
 13 15  2  0
 15 16  1  0
 15 17  1  0
  9 18  2  0
 18 19  1  0
 19 20  2  0
 19 21  1  0
 21 22  2  0
 22 23  1  0
 22  3  1  0
 21  7  1  0
 17 10  2  0
  1 24  1  0
  1 25  1  0
  1 26  1  0
  5 27  1  0
  6 28  1  0
 11 29  1  0
 12 30  1  0
 14 31  1  0
 16 32  1  0
 17 33  1  0
 18 34  1  0
 23 35  1  0
M  END
>  <meeko>  (2) 
{"is_sidechain": [false], "free_energy": -6.363, "intermolecular_energy": -7.782, "internal_energy": -0.331}

$$$$
Nepetin_5317284_out
     RDKit          3D

 35 37  0  0  0  0  0  0  0  0999 V2000
  -52.1700    3.6280   28.1400 C   0  0  0  0  0  0  0  0  0  0  0  0
  -53.2270    3.6530   27.1840 O   0  0  0  0  0  0  0  0  0  0  0  0
  -52.8880    3.4280   25.8820 C   0  0  0  0  0  0  0  0  0  0  0  0
  -52.5940    4.5060   25.0460 C   0  0  0  0  0  0  0  0  0  0  0  0
  -52.6420    5.7840   25.5210 O   0  0  0  0  0  0  0  0  0  0  0  0
  -52.2460    4.2850   23.7140 C   0  0  0  0  0  0  0  0  0  0  0  0
  -52.1930    2.9830   23.2180 C   0  0  0  0  0  0  0  0  0  0  0  0
  -51.8450    2.8280   21.8990 O   0  0  0  0  0  0  0  0  0  0  0  0
  -51.7770    1.5440   21.3810 C   0  0  0  0  0  0  0  0  0  0  0  0
  -51.4010    1.4920   19.9540 C   0  0  0  0  0  0  0  0  0  0  0  0
  -51.1000    0.2690   19.3510 C   0  0  0  0  0  0  0  0  0  0  0  0
  -50.7460    0.2200   18.0030 C   0  0  0  0  0  0  0  0  0  0  0  0
  -50.6910    1.3950   17.2540 C   0  0  0  0  0  0  0  0  0  0  0  0
  -50.3420    1.3340   15.9370 O   0  0  0  0  0  0  0  0  0  0  0  0
  -50.9920    2.6190   17.8510 C   0  0  0  0  0  0  0  0  0  0  0  0
  -50.9420    3.7730   17.1290 O   0  0  0  0  0  0  0  0  0  0  0  0
  -51.3460    2.6670   19.2000 C   0  0  0  0  0  0  0  0  0  0  0  0
  -52.0430    0.4300   22.0820 C   0  0  0  0  0  0  0  0  0  0  0  0
  -52.4240    0.5430   23.5050 C   0  0  0  0  0  0  0  0  0  0  0  0
  -52.6720   -0.4460   24.1800 O   0  0  0  0  0  0  0  0  0  0  0  0
  -52.4870    1.9070   24.0540 C   0  0  0  0  0  0  0  0  0  0  0  0
  -52.8350    2.1230   25.3890 C   0  0  0  0  0  0  0  0  0  0  0  0
  -53.1280    1.0960   26.2350 O   0  0  0  0  0  0  0  0  0  0  0  0
  -52.5935    3.6380   29.1552 H   0  0  0  0  0  0  0  0  0  0  0  0
  -51.5717    2.7155   28.0013 H   0  0  0  0  0  0  0  0  0  0  0  0
  -51.5292    4.5112   28.0013 H   0  0  0  0  0  0  0  0  0  0  0  0
  -53.4220    6.3580   25.3160 H   0  0  0  0  0  0  0  0  0  0  0  0
  -52.0139    5.1356   23.0562 H   0  0  0  0  0  0  0  0  0  0  0  0
  -51.1422   -0.6584   19.9410 H   0  0  0  0  0  0  0  0  0  0  0  0
  -50.5103   -0.7451   17.5308 H   0  0  0  0  0  0  0  0  0  0  0  0
  -51.0140    1.0730   15.2590 H   0  0  0  0  0  0  0  0  0  0  0  0
  -51.1530    4.6370   17.5630 H   0  0  0  0  0  0  0  0  0  0  0  0
  -51.5824    3.6325   19.6710 H   0  0  0  0  0  0  0  0  0  0  0  0
  -51.9779   -0.5573   21.6014 H   0  0  0  0  0  0  0  0  0  0  0  0
  -54.0710    0.8470   26.4040 H   0  0  0  0  0  0  0  0  0  0  0  0
  1  2  1  0
  2  3  1  0
  3  4  2  0
  4  5  1  0
  4  6  1  0
  6  7  2  0
  7  8  1  0
  8  9  1  0
  9 10  1  0
 10 11  1  0
 11 12  2  0
 12 13  1  0
 13 14  1  0
 13 15  2  0
 15 16  1  0
 15 17  1  0
  9 18  2  0
 18 19  1  0
 19 20  2  0
 19 21  1  0
 21 22  2  0
 22 23  1  0
 22  3  1  0
 21  7  1  0
 17 10  2  0
  1 24  1  0
  1 25  1  0
  1 26  1  0
  5 27  1  0
  6 28  1  0
 11 29  1  0
 12 30  1  0
 14 31  1  0
 16 32  1  0
 17 33  1  0
 18 34  1  0
 23 35  1  0
M  END
>  <meeko>  (3) 
{"is_sidechain": [false], "free_energy": -6.288, "intermolecular_energy": -7.689, "internal_energy": -0.333}

$$$$
Nepetin_5317284_out
     RDKit          3D

 35 37  0  0  0  0  0  0  0  0999 V2000
  -52.6430    5.5390   25.2890 C   0  0  0  0  0  0  0  0  0  0  0  0
  -51.3600    5.2900   24.7190 O   0  0  0  0  0  0  0  0  0  0  0  0
  -51.3180    4.4850   23.6180 C   0  0  0  0  0  0  0  0  0  0  0  0
  -51.3550    5.0530   22.3440 C   0  0  0  0  0  0  0  0  0  0  0  0
  -51.4330    6.4060   22.1910 O   0  0  0  0  0  0  0  0  0  0  0  0
  -51.3130    4.2380   21.2130 C   0  0  0  0  0  0  0  0  0  0  0  0
  -51.2330    2.8540   21.3580 C   0  0  0  0  0  0  0  0  0  0  0  0
  -51.1950    2.1040   20.2090 O   0  0  0  0  0  0  0  0  0  0  0  0
  -51.1080    0.7250   20.3220 C   0  0  0  0  0  0  0  0  0  0  0  0
  -51.0800    0.0170   19.0280 C   0  0  0  0  0  0  0  0  0  0  0  0
  -49.8970   -0.0500   18.2890 C   0  0  0  0  0  0  0  0  0  0  0  0
  -49.8710   -0.7190   17.0660 C   0  0  0  0  0  0  0  0  0  0  0  0
  -51.0280   -1.3240   16.5780 C   0  0  0  0  0  0  0  0  0  0  0  0
  -50.9910   -1.9750   15.3800 O   0  0  0  0  0  0  0  0  0  0  0  0
  -52.2120   -1.2610   17.3120 C   0  0  0  0  0  0  0  0  0  0  0  0
  -53.3500   -1.8480   16.8450 O   0  0  0  0  0  0  0  0  0  0  0  0
  -52.2380   -0.5910   18.5360 C   0  0  0  0  0  0  0  0  0  0  0  0
  -51.0720    0.0630   21.4910 C   0  0  0  0  0  0  0  0  0  0  0  0
  -51.1130    0.8250   22.7560 C   0  0  0  0  0  0  0  0  0  0  0  0
  -51.0800    0.2610   23.8410 O   0  0  0  0  0  0  0  0  0  0  0  0
  -51.1960    2.2880   22.6320 C   0  0  0  0  0  0  0  0  0  0  0  0
  -51.2380    3.1000   23.7670 C   0  0  0  0  0  0  0  0  0  0  0  0
  -51.2030    2.5820   25.0270 O   0  0  0  0  0  0  0  0  0  0  0  0
  -52.5659    5.5240   26.3862 H   0  0  0  0  0  0  0  0  0  0  0  0
  -53.0053    6.5242   24.9603 H   0  0  0  0  0  0  0  0  0  0  0  0
  -53.3476    4.7608   24.9603 H   0  0  0  0  0  0  0  0  0  0  0  0
  -51.7290    6.9730   22.9460 H   0  0  0  0  0  0  0  0  0  0  0  0
  -51.3429    4.6863   20.2090 H   0  0  0  0  0  0  0  0  0  0  0  0
  -48.9829    0.4265   18.6729 H   0  0  0  0  0  0  0  0  0  0  0  0
  -48.9375   -0.7693   16.4863 H   0  0  0  0  0  0  0  0  0  0  0  0
  -51.4550   -2.8420   15.2740 H   0  0  0  0  0  0  0  0  0  0  0  0
  -53.5810   -1.7840   15.8850 H   0  0  0  0  0  0  0  0  0  0  0  0
  -53.1721   -0.5414   19.1147 H   0  0  0  0  0  0  0  0  0  0  0  0
  -51.0126   -1.0353   21.5058 H   0  0  0  0  0  0  0  0  0  0  0  0
  -51.7940    2.9510   25.7310 H   0  0  0  0  0  0  0  0  0  0  0  0
  1  2  1  0
  2  3  1  0
  3  4  2  0
  4  5  1  0
  4  6  1  0
  6  7  2  0
  7  8  1  0
  8  9  1  0
  9 10  1  0
 10 11  1  0
 11 12  2  0
 12 13  1  0
 13 14  1  0
 13 15  2  0
 15 16  1  0
 15 17  1  0
  9 18  2  0
 18 19  1  0
 19 20  2  0
 19 21  1  0
 21 22  2  0
 22 23  1  0
 22  3  1  0
 21  7  1  0
 17 10  2  0
  1 24  1  0
  1 25  1  0
  1 26  1  0
  5 27  1  0
  6 28  1  0
 11 29  1  0
 12 30  1  0
 14 31  1  0
 16 32  1  0
 17 33  1  0
 18 34  1  0
 23 35  1  0
M  END
>  <meeko>  (4) 
{"is_sidechain": [false], "free_energy": -5.818, "intermolecular_energy": -7.167, "internal_energy": -0.274}

$$$$
Nepetin_5317284_out
     RDKit          3D

 35 37  0  0  0  0  0  0  0  0999 V2000
  -48.3250    5.6190   24.5210 C   0  0  0  0  0  0  0  0  0  0  0  0
  -47.5190    4.5240   24.0940 O   0  0  0  0  0  0  0  0  0  0  0  0
  -47.9580    3.8170   23.0130 C   0  0  0  0  0  0  0  0  0  0  0  0
  -47.5820    4.2100   21.7280 C   0  0  0  0  0  0  0  0  0  0  0  0
  -46.7780    5.2960   21.5450 O   0  0  0  0  0  0  0  0  0  0  0  0
  -48.0270    3.4930   20.6180 C   0  0  0  0  0  0  0  0  0  0  0  0
  -48.8500    2.3810   20.7940 C   0  0  0  0  0  0  0  0  0  0  0  0
  -49.2550    1.7160   19.6650 O   0  0  0  0  0  0  0  0  0  0  0  0
  -50.0680    0.6020   19.8100 C   0  0  0  0  0  0  0  0  0  0  0  0
  -50.4510   -0.0320   18.5330 C   0  0  0  0  0  0  0  0  0  0  0  0
  -49.4810   -0.3040   17.5660 C   0  0  0  0  0  0  0  0  0  0  0  0
  -49.8430   -0.9040   16.3600 C   0  0  0  0  0  0  0  0  0  0  0  0
  -51.1760   -1.2340   16.1180 C   0  0  0  0  0  0  0  0  0  0  0  0
  -51.5170   -1.8180   14.9340 O   0  0  0  0  0  0  0  0  0  0  0  0
  -52.1480   -0.9640   17.0810 C   0  0  0  0  0  0  0  0  0  0  0  0
  -53.4530   -1.2810   16.8550 O   0  0  0  0  0  0  0  0  0  0  0  0
  -51.7850   -0.3640   18.2870 C   0  0  0  0  0  0  0  0  0  0  0  0
  -50.5020    0.1310   20.9910 C   0  0  0  0  0  0  0  0  0  0  0  0
  -50.0940    0.8130   22.2370 C   0  0  0  0  0  0  0  0  0  0  0  0
  -50.4650    0.4150   23.3320 O   0  0  0  0  0  0  0  0  0  0  0  0
  -49.2240    1.9890   22.0790 C   0  0  0  0  0  0  0  0  0  0  0  0
  -48.7810    2.7040   23.1940 C   0  0  0  0  0  0  0  0  0  0  0  0
  -49.1270    2.3500   24.4630 O   0  0  0  0  0  0  0  0  0  0  0  0
  -48.3482    5.6505   25.6203 H   0  0  0  0  0  0  0  0  0  0  0  0
  -47.9012    6.5583   24.1361 H   0  0  0  0  0  0  0  0  0  0  0  0
  -49.3478    5.4934   24.1361 H   0  0  0  0  0  0  0  0  0  0  0  0
  -46.6480    5.6670   20.6360 H   0  0  0  0  0  0  0  0  0  0  0  0
  -47.7295    3.8038   19.6056 H   0  0  0  0  0  0  0  0  0  0  0  0
  -48.4290   -0.0445   17.7558 H   0  0  0  0  0  0  0  0  0  0  0  0
  -49.0769   -1.1169   15.5998 H   0  0  0  0  0  0  0  0  0  0  0  0
  -52.3900   -1.6130   14.5150 H   0  0  0  0  0  0  0  0  0  0  0  0
  -53.8540   -1.1250   15.9640 H   0  0  0  0  0  0  0  0  0  0  0  0
  -52.5519   -0.1518   19.0465 H   0  0  0  0  0  0  0  0  0  0  0  0
  -51.1546   -0.7536   21.0302 H   0  0  0  0  0  0  0  0  0  0  0  0
  -49.3730    3.0470   25.1220 H   0  0  0  0  0  0  0  0  0  0  0  0
  1  2  1  0
  2  3  1  0
  3  4  2  0
  4  5  1  0
  4  6  1  0
  6  7  2  0
  7  8  1  0
  8  9  1  0
  9 10  1  0
 10 11  1  0
 11 12  2  0
 12 13  1  0
 13 14  1  0
 13 15  2  0
 15 16  1  0
 15 17  1  0
  9 18  2  0
 18 19  1  0
 19 20  2  0
 19 21  1  0
 21 22  2  0
 22 23  1  0
 22  3  1  0
 21  7  1  0
 17 10  2  0
  1 24  1  0
  1 25  1  0
  1 26  1  0
  5 27  1  0
  6 28  1  0
 11 29  1  0
 12 30  1  0
 14 31  1  0
 16 32  1  0
 17 33  1  0
 18 34  1  0
 23 35  1  0
M  END
>  <meeko>  (5) 
{"is_sidechain": [false], "free_energy": -5.223, "intermolecular_energy": -6.411, "internal_energy": -0.295}

$$$$
Nepetin_5317284_out
     RDKit          3D

 35 37  0  0  0  0  0  0  0  0999 V2000
  -45.6340    6.5600   21.9010 C   0  0  0  0  0  0  0  0  0  0  0  0
  -45.2240    5.5990   20.9310 O   0  0  0  0  0  0  0  0  0  0  0  0
  -46.1810    4.7490   20.4610 C   0  0  0  0  0  0  0  0  0  0  0  0
  -47.0140    5.1530   19.4170 C   0  0  0  0  0  0  0  0  0  0  0  0
  -46.8790    6.3920   18.8630 O   0  0  0  0  0  0  0  0  0  0  0  0
  -47.9950    4.2900   18.9290 C   0  0  0  0  0  0  0  0  0  0  0  0
  -48.1420    3.0210   19.4880 C   0  0  0  0  0  0  0  0  0  0  0  0
  -49.1250    2.2170   18.9670 O   0  0  0  0  0  0  0  0  0  0  0  0
  -49.2890    0.9460   19.4980 C   0  0  0  0  0  0  0  0  0  0  0  0
  -50.3760    0.1700   18.8700 C   0  0  0  0  0  0  0  0  0  0  0  0
  -50.2130   -0.3550   17.5860 C   0  0  0  0  0  0  0  0  0  0  0  0
  -51.2400   -1.0890   16.9940 C   0  0  0  0  0  0  0  0  0  0  0  0
  -52.4340   -1.3010   17.6830 C   0  0  0  0  0  0  0  0  0  0  0  0
  -53.4310   -2.0190   17.0930 O   0  0  0  0  0  0  0  0  0  0  0  0
  -52.6010   -0.7790   18.9660 C   0  0  0  0  0  0  0  0  0  0  0  0
  -53.7620   -0.9790   19.6500 O   0  0  0  0  0  0  0  0  0  0  0  0
  -51.5730   -0.0440   19.5580 C   0  0  0  0  0  0  0  0  0  0  0  0
  -48.5550    0.4480   20.5060 C   0  0  0  0  0  0  0  0  0  0  0  0
  -47.4860    1.2750   21.1030 C   0  0  0  0  0  0  0  0  0  0  0  0
  -46.7940    0.8570   22.0200 O   0  0  0  0  0  0  0  0  0  0  0  0
  -47.3090    2.6180   20.5310 C   0  0  0  0  0  0  0  0  0  0  0  0
  -46.3250    3.4790   21.0220 C   0  0  0  0  0  0  0  0  0  0  0  0
  -45.4920    3.1200   22.0390 O   0  0  0  0  0  0  0  0  0  0  0  0
  -45.4625    6.1581   22.9105 H   0  0  0  0  0  0  0  0  0  0  0  0
  -45.0518    7.4841   21.7705 H   0  0  0  0  0  0  0  0  0  0  0  0
  -46.7040    6.7792   21.7705 H   0  0  0  0  0  0  0  0  0  0  0  0
  -47.5700    6.7350   18.2420 H   0  0  0  0  0  0  0  0  0  0  0  0
  -48.6508    4.6095   18.1056 H   0  0  0  0  0  0  0  0  0  0  0  0
  -49.2723   -0.1890   17.0406 H   0  0  0  0  0  0  0  0  0  0  0  0
  -51.1085   -1.5012   15.9827 H   0  0  0  0  0  0  0  0  0  0  0  0
  -54.3680   -1.7080   17.1570 H   0  0  0  0  0  0  0  0  0  0  0  0
  -54.6300   -0.9170   19.1780 H   0  0  0  0  0  0  0  0  0  0  0  0
  -51.7055    0.3681   20.5693 H   0  0  0  0  0  0  0  0  0  0  0  0
  -48.7478   -0.5668   20.8841 H   0  0  0  0  0  0  0  0  0  0  0  0
  -45.2760    3.7690   22.7540 H   0  0  0  0  0  0  0  0  0  0  0  0
  1  2  1  0
  2  3  1  0
  3  4  2  0
  4  5  1  0
  4  6  1  0
  6  7  2  0
  7  8  1  0
  8  9  1  0
  9 10  1  0
 10 11  1  0
 11 12  2  0
 12 13  1  0
 13 14  1  0
 13 15  2  0
 15 16  1  0
 15 17  1  0
  9 18  2  0
 18 19  1  0
 19 20  2  0
 19 21  1  0
 21 22  2  0
 22 23  1  0
 22  3  1  0
 21  7  1  0
 17 10  2  0
  1 24  1  0
  1 25  1  0
  1 26  1  0
  5 27  1  0
  6 28  1  0
 11 29  1  0
 12 30  1  0
 14 31  1  0
 16 32  1  0
 17 33  1  0
 18 34  1  0
 23 35  1  0
M  END
>  <meeko>  (6) 
{"is_sidechain": [false], "free_energy": -4.873, "intermolecular_energy": -6.004, "internal_energy": -0.272}

$$$$
