Nepitrin_120742_out
     RDKit          3D

 56 59  0  0  0  0  0  0  0  0999 V2000
  -51.2070    1.1110   17.6160 C   0  0  0  0  0  0  0  0  0  0  0  0
  -50.7020   -0.0140   18.3330 O   0  0  0  0  0  0  0  0  0  0  0  0
  -50.9440   -0.0520   19.6750 C   0  0  0  0  0  0  0  0  0  0  0  0
  -49.9740    0.4060   20.5670 C   0  0  0  0  0  0  0  0  0  0  0  0
  -48.7830    0.8910   20.1090 O   0  0  0  0  0  0  0  0  0  0  0  0
  -48.6520    2.3110   20.0500 C   0  0  2  0  0  0  0  0  0  0  0  0
  -49.8790    2.9230   20.4430 O   0  0  0  0  0  0  0  0  0  0  0  0
  -49.8070    4.3510   20.4290 C   0  0  2  0  0  0  0  0  0  0  0  0
  -51.1250    4.8830   20.9840 C   0  0  0  0  0  0  0  0  0  0  0  0
  -50.9160    6.2020   21.4530 O   0  0  0  0  0  0  0  0  0  0  0  0
  -49.5500    4.8480   19.0050 C   0  0  1  0  0  0  0  0  0  0  0  0
  -49.3970    6.2640   19.0210 O   0  0  0  0  0  0  0  0  0  0  0  0
  -48.2870    4.2090   18.4270 C   0  0  2  0  0  0  0  0  0  0  0  0
  -48.2340    4.5170   17.0330 O   0  0  0  0  0  0  0  0  0  0  0  0
  -48.2990    2.6920   18.6130 C   0  0  1  0  0  0  0  0  0  0  0  0
  -47.0040    2.1690   18.3180 O   0  0  0  0  0  0  0  0  0  0  0  0
  -50.2130    0.3700   21.9420 C   0  0  0  0  0  0  0  0  0  0  0  0
  -51.4260   -0.1230   22.4220 C   0  0  0  0  0  0  0  0  0  0  0  0
  -51.6040   -0.1340   23.7810 O   0  0  0  0  0  0  0  0  0  0  0  0
  -52.8040   -0.6110   24.2880 C   0  0  0  0  0  0  0  0  0  0  0  0
  -52.8870   -0.5820   25.7620 C   0  0  0  0  0  0  0  0  0  0  0  0
  -52.1950   -1.5290   26.5210 C   0  0  0  0  0  0  0  0  0  0  0  0
  -52.2740   -1.5030   27.9140 C   0  0  0  0  0  0  0  0  0  0  0  0
  -53.0440   -0.5300   28.5510 C   0  0  0  0  0  0  0  0  0  0  0  0
  -53.1120   -0.5140   29.9110 O   0  0  0  0  0  0  0  0  0  0  0  0
  -53.7370    0.4170   27.7960 C   0  0  0  0  0  0  0  0  0  0  0  0
  -54.4920    1.3720   28.4070 O   0  0  0  0  0  0  0  0  0  0  0  0
  -53.6580    0.3910   26.4030 C   0  0  0  0  0  0  0  0  0  0  0  0
  -53.8080   -1.0830   23.5320 C   0  0  0  0  0  0  0  0  0  0  0  0
  -53.6640   -1.0960   22.0630 C   0  0  0  0  0  0  0  0  0  0  0  0
  -54.5560   -1.5150   21.3380 O   0  0  0  0  0  0  0  0  0  0  0  0
  -52.3950   -0.5800   21.5290 C   0  0  0  0  0  0  0  0  0  0  0  0
  -52.1580   -0.5460   20.1530 C   0  0  0  0  0  0  0  0  0  0  0  0
  -53.0820   -0.9830   19.2500 O   0  0  0  0  0  0  0  0  0  0  0  0
  -51.5503    1.8758   18.3283 H   0  0  0  0  0  0  0  0  0  0  0  0
  -50.4107    1.5302   16.9834 H   0  0  0  0  0  0  0  0  0  0  0  0
  -52.0494    0.7946   16.9834 H   0  0  0  0  0  0  0  0  0  0  0  0
  -47.8624    2.6576   20.7329 H   0  0  0  0  0  0  0  0  0  0  0  0
  -48.9749    4.7136   21.0504 H   0  0  0  0  0  0  0  0  0  0  0  0
  -51.8866    4.8879   20.1903 H   0  0  0  0  0  0  0  0  0  0  0  0
  -51.4733    4.2415   21.8069 H   0  0  0  0  0  0  0  0  0  0  0  0
  -51.6430    6.7880   21.1250 H   0  0  0  0  0  0  0  0  0  0  0  0
  -50.4062    4.5669   18.3743 H   0  0  0  0  0  0  0  0  0  0  0  0
  -48.7970    6.5240   19.7640 H   0  0  0  0  0  0  0  0  0  0  0  0
  -47.4063    4.6058   18.9532 H   0  0  0  0  0  0  0  0  0  0  0  0
  -47.5630    5.2290   16.8780 H   0  0  0  0  0  0  0  0  0  0  0  0
  -49.0573    2.2743   17.9344 H   0  0  0  0  0  0  0  0  0  0  0  0
  -46.3650    2.9160   18.1990 H   0  0  0  0  0  0  0  0  0  0  0  0
  -49.4468    0.7294   22.6447 H   0  0  0  0  0  0  0  0  0  0  0  0
  -51.5869   -2.2964   26.0197 H   0  0  0  0  0  0  0  0  0  0  0  0
  -51.7289   -2.2500   28.5098 H   0  0  0  0  0  0  0  0  0  0  0  0
  -52.7800   -1.2880   30.4330 H   0  0  0  0  0  0  0  0  0  0  0  0
  -54.1110    1.9020   29.1500 H   0  0  0  0  0  0  0  0  0  0  0  0
  -54.2039    1.1382   25.8083 H   0  0  0  0  0  0  0  0  0  0  0  0
  -54.7293   -1.4565   24.0028 H   0  0  0  0  0  0  0  0  0  0  0  0
  -52.8010   -1.5520   18.4900 H   0  0  0  0  0  0  0  0  0  0  0  0
  1  2  1  0
  2  3  1  0
  3  4  2  0
  4  5  1  0
  5  6  1  0
  6  7  1  0
  7  8  1  0
  8  9  1  0
  9 10  1  0
  8 11  1  0
 11 12  1  0
 11 13  1  0
 13 14  1  0
 13 15  1  0
 15 16  1  0
  4 17  1  0
 17 18  2  0
 18 19  1  0
 19 20  1  0
 20 21  1  0
 21 22  1  0
 22 23  2  0
 23 24  1  0
 24 25  1  0
 24 26  2  0
 26 27  1  0
 26 28  1  0
 20 29  2  0
 29 30  1  0
 30 31  2  0
 30 32  1  0
 32 33  2  0
 33 34  1  0
 33  3  1  0
 15  6  1  0
 32 18  1  0
 28 21  2  0
  1 35  1  0
  1 36  1  0
  1 37  1  0
  6 38  1  1
  8 39  1  1
  9 40  1  0
  9 41  1  0
 10 42  1  0
 11 43  1  6
 12 44  1  0
 13 45  1  1
 14 46  1  0
 15 47  1  6
 16 48  1  0
 17 49  1  0
 22 50  1  0
 23 51  1  0
 25 52  1  0
 27 53  1  0
 28 54  1  0
 29 55  1  0
 34 56  1  0
M  END
>  <meeko>  (1) 
{"is_sidechain": [false], "free_energy": -7.893, "intermolecular_energy": -11.816, "internal_energy": -0.835}

$$$$
Nepitrin_120742_out
     RDKit          3D

 56 59  0  0  0  0  0  0  0  0999 V2000
  -50.6460   -0.1890   17.9320 C   0  0  0  0  0  0  0  0  0  0  0  0
  -51.4130    0.7810   18.6440 O   0  0  0  0  0  0  0  0  0  0  0  0
  -51.5410    0.6020   19.9900 C   0  0  0  0  0  0  0  0  0  0  0  0
  -50.5870    1.1400   20.8550 C   0  0  0  0  0  0  0  0  0  0  0  0
  -49.5250    1.8430   20.3640 O   0  0  0  0  0  0  0  0  0  0  0  0
  -49.2640    3.1100   20.9680 C   0  0  2  0  0  0  0  0  0  0  0  0
  -48.8890    2.9250   22.3310 O   0  0  0  0  0  0  0  0  0  0  0  0
  -48.5900    4.1580   22.9890 C   0  0  2  0  0  0  0  0  0  0  0  0
  -48.0830    3.8210   24.3890 C   0  0  0  0  0  0  0  0  0  0  0  0
  -49.1670    3.9210   25.2950 O   0  0  0  0  0  0  0  0  0  0  0  0
  -49.8380    5.0410   23.0360 C   0  0  1  0  0  0  0  0  0  0  0  0
  -49.5040    6.2980   23.6180 O   0  0  0  0  0  0  0  0  0  0  0  0
  -50.3960    5.2680   21.6300 C   0  0  2  0  0  0  0  0  0  0  0  0
  -51.6770    5.8860   21.7570 O   0  0  0  0  0  0  0  0  0  0  0  0
  -50.5390    3.9480   20.8730 C   0  0  1  0  0  0  0  0  0  0  0  0
  -50.7940    4.2180   19.4940 O   0  0  0  0  0  0  0  0  0  0  0  0
  -50.7100    0.9610   22.2340 C   0  0  0  0  0  0  0  0  0  0  0  0
  -51.7910    0.2440   22.7460 C   0  0  0  0  0  0  0  0  0  0  0  0
  -51.8590    0.1010   24.1080 O   0  0  0  0  0  0  0  0  0  0  0  0
  -52.9280   -0.6000   24.6470 C   0  0  0  0  0  0  0  0  0  0  0  0
  -52.8990   -0.6980   26.1200 C   0  0  0  0  0  0  0  0  0  0  0  0
  -52.3680   -1.8330   26.7370 C   0  0  0  0  0  0  0  0  0  0  0  0
  -52.3410   -1.9270   28.1290 C   0  0  0  0  0  0  0  0  0  0  0  0
  -52.8450   -0.8850   28.9070 C   0  0  0  0  0  0  0  0  0  0  0  0
  -52.8140   -0.9880   30.2650 O   0  0  0  0  0  0  0  0  0  0  0  0
  -53.3780    0.2500   28.2940 C   0  0  0  0  0  0  0  0  0  0  0  0
  -53.8730    1.2740   29.0440 O   0  0  0  0  0  0  0  0  0  0  0  0
  -53.4040    0.3430   26.9030 C   0  0  0  0  0  0  0  0  0  0  0  0
  -53.9020   -1.1680   23.9180 C   0  0  0  0  0  0  0  0  0  0  0  0
  -53.8730   -1.0450   22.4480 C   0  0  0  0  0  0  0  0  0  0  0  0
  -54.7430   -1.5450   21.7490 O   0  0  0  0  0  0  0  0  0  0  0  0
  -52.7440   -0.2920   21.8800 C   0  0  0  0  0  0  0  0  0  0  0  0
  -52.6230   -0.1160   20.5000 C   0  0  0  0  0  0  0  0  0  0  0  0
  -53.5360   -0.6250   19.6240 O   0  0  0  0  0  0  0  0  0  0  0  0
  -50.1279   -0.8442   18.6478 H   0  0  0  0  0  0  0  0  0  0  0  0
  -51.3139   -0.7924   17.2997 H   0  0  0  0  0  0  0  0  0  0  0  0
  -49.9049    0.3218   17.2997 H   0  0  0  0  0  0  0  0  0  0  0  0
  -48.4389    3.6234   20.4527 H   0  0  0  0  0  0  0  0  0  0  0  0
  -47.8176    4.7221   22.4458 H   0  0  0  0  0  0  0  0  0  0  0  0
  -47.6817    2.7969   24.4019 H   0  0  0  0  0  0  0  0  0  0  0  0
  -47.2836    4.5189   24.6788 H   0  0  0  0  0  0  0  0  0  0  0  0
  -49.2660    3.0680   25.7860 H   0  0  0  0  0  0  0  0  0  0  0  0
  -50.6042    4.5344   23.6412 H   0  0  0  0  0  0  0  0  0  0  0  0
  -50.0560    7.0090   23.2070 H   0  0  0  0  0  0  0  0  0  0  0  0
  -49.7042    5.9083   21.0631 H   0  0  0  0  0  0  0  0  0  0  0  0
  -51.7060    6.7030   21.2000 H   0  0  0  0  0  0  0  0  0  0  0  0
  -51.3704    3.3880   21.3260 H   0  0  0  0  0  0  0  0  0  0  0  0
  -51.5090    4.8980   19.4180 H   0  0  0  0  0  0  0  0  0  0  0  0
  -49.9566    1.3842   22.9146 H   0  0  0  0  0  0  0  0  0  0  0  0
  -51.9700   -2.6550   26.1239 H   0  0  0  0  0  0  0  0  0  0  0  0
  -51.9226   -2.8222   28.6123 H   0  0  0  0  0  0  0  0  0  0  0  0
  -53.1230   -0.2330   30.8260 H   0  0  0  0  0  0  0  0  0  0  0  0
  -54.3910    1.9980   28.6120 H   0  0  0  0  0  0  0  0  0  0  0  0
  -53.8233    1.2384   26.4209 H   0  0  0  0  0  0  0  0  0  0  0  0
  -54.7147   -1.7203   24.4125 H   0  0  0  0  0  0  0  0  0  0  0  0
  -54.1730   -1.3220   19.9220 H   0  0  0  0  0  0  0  0  0  0  0  0
  1  2  1  0
  2  3  1  0
  3  4  2  0
  4  5  1  0
  5  6  1  0
  6  7  1  0
  7  8  1  0
  8  9  1  0
  9 10  1  0
  8 11  1  0
 11 12  1  0
 11 13  1  0
 13 14  1  0
 13 15  1  0
 15 16  1  0
  4 17  1  0
 17 18  2  0
 18 19  1  0
 19 20  1  0
 20 21  1  0
 21 22  1  0
 22 23  2  0
 23 24  1  0
 24 25  1  0
 24 26  2  0
 26 27  1  0
 26 28  1  0
 20 29  2  0
 29 30  1  0
 30 31  2  0
 30 32  1  0
 32 33  2  0
 33 34  1  0
 33  3  1  0
 15  6  1  0
 32 18  1  0
 28 21  2  0
  1 35  1  0
  1 36  1  0
  1 37  1  0
  6 38  1  6
  8 39  1  6
  9 40  1  0
  9 41  1  0
 10 42  1  0
 11 43  1  1
 12 44  1  0
 13 45  1  6
 14 46  1  0
 15 47  1  1
 16 48  1  0
 17 49  1  0
 22 50  1  0
 23 51  1  0
 25 52  1  0
 27 53  1  0
 28 54  1  0
 29 55  1  0
 34 56  1  0
M  END
>  <meeko>  (2) 
{"is_sidechain": [false], "free_energy": -7.507, "intermolecular_energy": -11.562, "internal_energy": -0.51}

$$$$
Nepitrin_120742_out
     RDKit          3D

 56 59  0  0  0  0  0  0  0  0999 V2000
  -45.7270    5.2440   19.2170 C   0  0  0  0  0  0  0  0  0  0  0  0
  -46.0630    4.9920   20.5790 O   0  0  0  0  0  0  0  0  0  0  0  0
  -47.1670    4.2230   20.8120 C   0  0  0  0  0  0  0  0  0  0  0  0
  -48.4220    4.8250   20.9110 C   0  0  0  0  0  0  0  0  0  0  0  0
  -48.5550    6.1770   20.7780 O   0  0  0  0  0  0  0  0  0  0  0  0
  -48.7460    6.9220   21.9800 C   0  0  2  0  0  0  0  0  0  0  0  0
  -47.8710    6.4310   22.9930 O   0  0  0  0  0  0  0  0  0  0  0  0
  -47.9950    7.1540   24.2210 C   0  0  2  0  0  0  0  0  0  0  0  0
  -46.9300    6.6230   25.1760 C   0  0  0  0  0  0  0  0  0  0  0  0
  -47.5540    5.7710   26.1180 O   0  0  0  0  0  0  0  0  0  0  0  0
  -49.4040    6.9780   24.7900 C   0  0  1  0  0  0  0  0  0  0  0  0
  -49.5390    7.7700   25.9670 O   0  0  0  0  0  0  0  0  0  0  0  0
  -50.4600    7.4060   23.7700 C   0  0  2  0  0  0  0  0  0  0  0  0
  -51.7380    6.9960   24.2580 O   0  0  0  0  0  0  0  0  0  0  0  0
  -50.2050    6.7610   22.4070 C   0  0  1  0  0  0  0  0  0  0  0  0
  -51.0290    7.3880   21.4250 O   0  0  0  0  0  0  0  0  0  0  0  0
  -49.5560    4.0470   21.1500 C   0  0  0  0  0  0  0  0  0  0  0  0
  -49.4310    2.6640   21.2870 C   0  0  0  0  0  0  0  0  0  0  0  0
  -50.5790    1.9520   21.5210 O   0  0  0  0  0  0  0  0  0  0  0  0
  -50.4870    0.5740   21.6540 C   0  0  0  0  0  0  0  0  0  0  0  0
  -51.7810   -0.0910   21.9080 C   0  0  0  0  0  0  0  0  0  0  0  0
  -52.5070   -0.6400   20.8480 C   0  0  0  0  0  0  0  0  0  0  0  0
  -53.7290   -1.2690   21.0870 C   0  0  0  0  0  0  0  0  0  0  0  0
  -54.2290   -1.3490   22.3870 C   0  0  0  0  0  0  0  0  0  0  0  0
  -55.4240   -1.9640   22.6080 O   0  0  0  0  0  0  0  0  0  0  0  0
  -53.5080   -0.8010   23.4480 C   0  0  0  0  0  0  0  0  0  0  0  0
  -53.9860   -0.8730   24.7210 O   0  0  0  0  0  0  0  0  0  0  0  0
  -52.2850   -0.1730   23.2080 C   0  0  0  0  0  0  0  0  0  0  0  0
  -49.3380   -0.1150   21.5850 C   0  0  0  0  0  0  0  0  0  0  0  0
  -48.0740    0.6050   21.3390 C   0  0  0  0  0  0  0  0  0  0  0  0
  -47.0060    0.0130   21.2660 O   0  0  0  0  0  0  0  0  0  0  0  0
  -48.1760    2.0650   21.1880 C   0  0  0  0  0  0  0  0  0  0  0  0
  -47.0390    2.8410   20.9500 C   0  0  0  0  0  0  0  0  0  0  0  0
  -45.7970    2.2890   20.8450 O   0  0  0  0  0  0  0  0  0  0  0  0
  -44.8477    5.9035   19.1722 H   0  0  0  0  0  0  0  0  0  0  0  0
  -45.4981    4.2930   18.7138 H   0  0  0  0  0  0  0  0  0  0  0  0
  -46.5759    5.7300   18.7138 H   0  0  0  0  0  0  0  0  0  0  0  0
  -48.5195    7.9862   21.8185 H   0  0  0  0  0  0  0  0  0  0  0  0
  -47.8431    8.2324   24.0658 H   0  0  0  0  0  0  0  0  0  0  0  0
  -46.1730    6.0595   24.6108 H   0  0  0  0  0  0  0  0  0  0  0  0
  -46.4379    7.4597   25.6935 H   0  0  0  0  0  0  0  0  0  0  0  0
  -47.7960    4.9170   25.6820 H   0  0  0  0  0  0  0  0  0  0  0  0
  -49.5559    5.9149   25.0282 H   0  0  0  0  0  0  0  0  0  0  0  0
  -49.8770    8.6670   25.7240 H   0  0  0  0  0  0  0  0  0  0  0  0
  -50.4185    8.4975   23.6403 H   0  0  0  0  0  0  0  0  0  0  0  0
  -51.6180    6.3130   24.9640 H   0  0  0  0  0  0  0  0  0  0  0  0
  -50.4381    5.6893   22.4915 H   0  0  0  0  0  0  0  0  0  0  0  0
  -51.6210    6.7120   21.0100 H   0  0  0  0  0  0  0  0  0  0  0  0
  -50.5447    4.5225   21.2301 H   0  0  0  0  0  0  0  0  0  0  0  0
  -52.1141   -0.5761   19.8226 H   0  0  0  0  0  0  0  0  0  0  0  0
  -54.2980   -1.7017   20.2509 H   0  0  0  0  0  0  0  0  0  0  0  0
  -56.1480   -1.8960   21.9360 H   0  0  0  0  0  0  0  0  0  0  0  0
  -54.5410   -1.6450   24.9980 H   0  0  0  0  0  0  0  0  0  0  0  0
  -51.7164    0.2586   24.0450 H   0  0  0  0  0  0  0  0  0  0  0  0
  -49.3383   -1.2078   21.7108 H   0  0  0  0  0  0  0  0  0  0  0  0
  -45.6970    1.3380   20.5890 H   0  0  0  0  0  0  0  0  0  0  0  0
  1  2  1  0
  2  3  1  0
  3  4  2  0
  4  5  1  0
  5  6  1  0
  6  7  1  0
  7  8  1  0
  8  9  1  0
  9 10  1  0
  8 11  1  0
 11 12  1  0
 11 13  1  0
 13 14  1  0
 13 15  1  0
 15 16  1  0
  4 17  1  0
 17 18  2  0
 18 19  1  0
 19 20  1  0
 20 21  1  0
 21 22  1  0
 22 23  2  0
 23 24  1  0
 24 25  1  0
 24 26  2  0
 26 27  1  0
 26 28  1  0
 20 29  2  0
 29 30  1  0
 30 31  2  0
 30 32  1  0
 32 33  2  0
 33 34  1  0
 33  3  1  0
 15  6  1  0
 32 18  1  0
 28 21  2  0
  1 35  1  0
  1 36  1  0
  1 37  1  0
  6 38  1  6
  8 39  1  6
  9 40  1  0
  9 41  1  0
 10 42  1  0
 11 43  1  1
 12 44  1  0
 13 45  1  6
 14 46  1  0
 15 47  1  1
 16 48  1  0
 17 49  1  0
 22 50  1  0
 23 51  1  0
 25 52  1  0
 27 53  1  0
 28 54  1  0
 29 55  1  0
 34 56  1  0
M  END
>  <meeko>  (3) 
{"is_sidechain": [false], "free_energy": -6.474, "intermolecular_energy": -9.748, "internal_energy": -0.779}

$$$$
