6EQM_unknown_cid_out
     RDKit          3D

 51 53  0  0  0  0  0  0  0  0999 V2000
   29.0040   73.2180   22.9020 C   0  0  0  0  0  0  0  0  0  0  0  0
   29.3290   73.7270   21.4650 C   0  0  1  0  0  0  0  0  0  0  0  0
   29.5540   75.2430   21.5190 C   0  0  0  0  0  0  0  0  0  0  0  0
   28.7610   76.0360   20.7820 N   0  0  0  0  0  0  0  0  0  0  0  0
   28.8860   77.3560   20.7290 C   0  0  0  0  0  0  0  0  0  0  0  0
   28.0060   78.0220   19.8680 N   0  0  0  0  0  0  0  0  0  0  0  0
   27.5710   79.2810   19.9540 C   0  0  0  0  0  0  0  0  0  0  0  0
   27.7920   80.0460   20.8900 O   0  0  0  0  0  0  0  0  0  0  0  0
   26.6940   79.7540   18.8560 C   0  0  0  0  0  0  0  0  0  0  0  0
   25.4210   79.3200   18.9150 N   0  0  0  0  0  0  0  0  0  0  0  0
   24.5480   79.6800   17.9730 C   0  0  0  0  0  0  0  0  0  0  0  0
   24.9220   80.5130   16.9340 C   0  0  0  0  0  0  0  0  0  0  0  0
   23.9000   80.9010   15.9120 C   0  0  0  0  0  0  0  0  0  0  0  0
   24.4980   81.3770   14.8180 F   0  0  0  0  0  0  0  0  0  0  0  0
   23.0920   79.8750   15.5960 F   0  0  0  0  0  0  0  0  0  0  0  0
   23.1900   81.9240   16.4140 F   0  0  0  0  0  0  0  0  0  0  0  0
   26.2330   80.9880   16.8400 C   0  0  0  0  0  0  0  0  0  0  0  0
   27.1230   80.6080   17.8280 C   0  0  0  0  0  0  0  0  0  0  0  0
   28.7880   81.1690   17.7260 Cl  0  0  0  0  0  0  0  0  0  0  0  0
   29.8240   78.0300   21.5410 C   0  0  0  0  0  0  0  0  0  0  0  0
   30.6770   77.2590   22.3260 C   0  0  0  0  0  0  0  0  0  0  0  0
   30.5670   75.8780   22.2890 C   0  0  0  0  0  0  0  0  0  0  0  0
   31.3660   75.1420   23.0430 F   0  0  0  0  0  0  0  0  0  0  0  0
   30.5960   73.0560   20.8920 C   0  0  0  0  0  0  0  0  0  0  0  0
   30.7000   73.5300   19.5330 O   0  0  0  0  0  0  0  0  0  0  0  0
   29.6260   73.2670   18.6220 C   0  0  1  0  0  0  0  0  0  0  0  0
   29.6580   74.4130   17.5600 C   0  0  0  0  0  0  0  0  0  0  0  0
   29.9720   71.8970   18.0130 C   0  0  0  0  0  0  0  0  0  0  0  0
   29.4550   71.8610   16.7670 F   0  0  0  0  0  0  0  0  0  0  0  0
   31.3280   71.8130   17.9090 F   0  0  0  0  0  0  0  0  0  0  0  0
   29.4500   70.8960   18.7630 F   0  0  0  0  0  0  0  0  0  0  0  0
   28.2820   73.2130   19.3760 C   0  0  0  0  0  0  0  0  0  0  0  0
   27.1750   72.9390   18.7040 N   0  0  0  0  0  0  0  0  0  0  0  0
   28.1570   73.4370   20.6320 N   0  0  0  0  0  0  0  0  0  0  0  0
   29.4421   73.9041   23.6418 H   0  0  0  0  0  0  0  0  0  0  0  0
   27.9133   73.1787   23.0391 H   0  0  0  0  0  0  0  0  0  0  0  0
   29.4273   72.2120   23.0391 H   0  0  0  0  0  0  0  0  0  0  0  0
   27.6510   77.4740   19.0710 H   0  0  0  0  0  0  0  0  0  0  0  0
   23.5139   79.3084   18.0232 H   0  0  0  0  0  0  0  0  0  0  0  0
   26.5454   81.6399   16.0109 H   0  0  0  0  0  0  0  0  0  0  0  0
   29.8790   79.1286   21.5530 H   0  0  0  0  0  0  0  0  0  0  0  0
   31.4294   77.7403   22.9680 H   0  0  0  0  0  0  0  0  0  0  0  0
   31.4832   73.3512   21.4714 H   0  0  0  0  0  0  0  0  0  0  0  0
   30.5343   71.9587   20.9387 H   0  0  0  0  0  0  0  0  0  0  0  0
   29.6852   75.3864   18.0716 H   0  0  0  0  0  0  0  0  0  0  0  0
   30.5535   74.3046   16.9304 H   0  0  0  0  0  0  0  0  0  0  0  0
   28.7579   74.3547   16.9304 H   0  0  0  0  0  0  0  0  0  0  0  0
   28.1320   74.2860   19.1855 H   0  0  0  0  0  0  0  0  0  0  0  0
   27.0850   71.9190   18.5930 H   0  0  0  0  0  0  0  0  0  0  0  0
   26.3620   73.3020   19.2210 H   0  0  0  0  0  0  0  0  0  0  0  0
   27.7100   72.6010   21.0360 H   0  0  0  0  0  0  0  0  0  0  0  0
  2  1  1  1
  2  3  1  0
  3  4  1  0
  4  5  2  0
  5  6  1  0
  6  7  1  0
  7  8  2  0
  7  9  1  0
  9 10  1  0
 10 11  2  0
 11 12  1  0
 12 13  1  0
 13 14  1  0
 13 15  1  0
 13 16  1  0
 12 17  2  0
 17 18  1  0
 18 19  1  0
  5 20  1  0
 20 21  2  0
 21 22  1  0
 22 23  1  0
  2 24  1  0
 24 25  1  0
 25 26  1  0
 26 27  1  6
 26 28  1  0
 28 29  1  0
 28 30  1  0
 28 31  1  0
 26 32  1  0
 32 33  1  0
 32 34  1  0
 34  2  1  0
 22  3  2  0
 18  9  2  0
  1 35  1  0
  1 36  1  0
  1 37  1  0
  6 38  1  0
 11 39  1  0
 17 40  1  0
 20 41  1  0
 21 42  1  0
 24 43  1  0
 24 44  1  0
 27 45  1  0
 27 46  1  0
 27 47  1  0
 32 48  1  0
 33 49  1  0
 33 50  1  0
 34 51  1  0
M  END
>  <meeko>  (1) 
{"is_sidechain": [false], "free_energy": -10.377, "intermolecular_energy": -13.714, "internal_energy": -0.578}

$$$$
6EQM_unknown_cid_out
     RDKit          3D

 51 53  0  0  0  0  0  0  0  0999 V2000
   34.1380   78.4600   20.4900 C   0  0  0  0  0  0  0  0  0  0  0  0
   33.2980   77.3920   19.7250 C   0  0  1  0  0  0  0  0  0  0  0  0
   31.9380   77.2470   20.4190 C   0  0  0  0  0  0  0  0  0  0  0  0
   30.8450   77.7060   19.7900 N   0  0  0  0  0  0  0  0  0  0  0  0
   29.6250   77.6600   20.3090 C   0  0  0  0  0  0  0  0  0  0  0  0
   28.6070   78.2320   19.5360 N   0  0  0  0  0  0  0  0  0  0  0  0
   27.9280   79.3560   19.7760 C   0  0  0  0  0  0  0  0  0  0  0  0
   28.0130   80.0310   20.7990 O   0  0  0  0  0  0  0  0  0  0  0  0
   26.9470   79.7690   18.7450 C   0  0  0  0  0  0  0  0  0  0  0  0
   25.6900   79.3300   18.9440 N   0  0  0  0  0  0  0  0  0  0  0  0
   24.7280   79.6380   18.0720 C   0  0  0  0  0  0  0  0  0  0  0  0
   24.9940   80.4210   16.9640 C   0  0  0  0  0  0  0  0  0  0  0  0
   23.8770   80.7520   16.0250 C   0  0  0  0  0  0  0  0  0  0  0  0
   22.8420   81.2600   16.6970 F   0  0  0  0  0  0  0  0  0  0  0  0
   24.2680   81.5980   15.0580 F   0  0  0  0  0  0  0  0  0  0  0  0
   23.4370   79.6000   15.4940 F   0  0  0  0  0  0  0  0  0  0  0  0
   26.2850   80.9000   16.7240 C   0  0  0  0  0  0  0  0  0  0  0  0
   27.2690   80.5750   17.6410 C   0  0  0  0  0  0  0  0  0  0  0  0
   28.9100   81.1410   17.3560 Cl  0  0  0  0  0  0  0  0  0  0  0  0
   29.3840   77.0220   21.5460 C   0  0  0  0  0  0  0  0  0  0  0  0
   30.4820   76.5280   22.2460 C   0  0  0  0  0  0  0  0  0  0  0  0
   31.7500   76.6700   21.7050 C   0  0  0  0  0  0  0  0  0  0  0  0
   32.7930   76.1910   22.3610 F   0  0  0  0  0  0  0  0  0  0  0  0
   33.0660   77.7940   18.2520 C   0  0  0  0  0  0  0  0  0  0  0  0
   32.3880   76.6710   17.6510 O   0  0  0  0  0  0  0  0  0  0  0  0
   33.0320   75.3910   17.6510 C   0  0  1  0  0  0  0  0  0  0  0  0
   31.8900   74.3240   17.6210 C   0  0  0  0  0  0  0  0  0  0  0  0
   33.8680   75.3870   16.3590 C   0  0  0  0  0  0  0  0  0  0  0  0
   33.9750   74.1080   15.9460 F   0  0  0  0  0  0  0  0  0  0  0  0
   33.1790   76.0800   15.4100 F   0  0  0  0  0  0  0  0  0  0  0  0
   35.0980   75.9090   16.5860 F   0  0  0  0  0  0  0  0  0  0  0  0
   33.9330   75.2410   18.8930 C   0  0  0  0  0  0  0  0  0  0  0  0
   34.6430   74.1350   19.0460 N   0  0  0  0  0  0  0  0  0  0  0  0
   34.0300   76.1250   19.8160 N   0  0  0  0  0  0  0  0  0  0  0  0
   34.0210   78.3112   21.5736 H   0  0  0  0  0  0  0  0  0  0  0  0
   35.1987   78.3559   20.2180 H   0  0  0  0  0  0  0  0  0  0  0  0
   33.7868   79.4663   20.2180 H   0  0  0  0  0  0  0  0  0  0  0  0
   28.3510   77.7230   18.6770 H   0  0  0  0  0  0  0  0  0  0  0  0
   23.7072   79.2630   18.2374 H   0  0  0  0  0  0  0  0  0  0  0  0
   26.5105   81.5128   15.8387 H   0  0  0  0  0  0  0  0  0  0  0  0
   28.3634   76.9188   21.9431 H   0  0  0  0  0  0  0  0  0  0  0  0
   30.3443   76.0307   23.2174 H   0  0  0  0  0  0  0  0  0  0  0  0
   32.4410   78.6973   18.1934 H   0  0  0  0  0  0  0  0  0  0  0  0
   34.0103   78.0252   17.7373 H   0  0  0  0  0  0  0  0  0  0  0  0
   31.6076   74.0601   18.6509 H   0  0  0  0  0  0  0  0  0  0  0  0
   31.0162   74.7368   17.0955 H   0  0  0  0  0  0  0  0  0  0  0  0
   32.2426   73.4242   17.0955 H   0  0  0  0  0  0  0  0  0  0  0  0
   33.0985   74.7814   19.4429 H   0  0  0  0  0  0  0  0  0  0  0  0
   34.4960   73.5180   18.2340 H   0  0  0  0  0  0  0  0  0  0  0  0
   35.6420   74.3770   19.1170 H   0  0  0  0  0  0  0  0  0  0  0  0
   35.0290   76.3680   19.8860 H   0  0  0  0  0  0  0  0  0  0  0  0
  2  1  1  1
  2  3  1  0
  3  4  1  0
  4  5  2  0
  5  6  1  0
  6  7  1  0
  7  8  2  0
  7  9  1  0
  9 10  1  0
 10 11  2  0
 11 12  1  0
 12 13  1  0
 13 14  1  0
 13 15  1  0
 13 16  1  0
 12 17  2  0
 17 18  1  0
 18 19  1  0
  5 20  1  0
 20 21  2  0
 21 22  1  0
 22 23  1  0
  2 24  1  0
 24 25  1  0
 25 26  1  0
 26 27  1  6
 26 28  1  0
 28 29  1  0
 28 30  1  0
 28 31  1  0
 26 32  1  0
 32 33  1  0
 32 34  1  0
 34  2  1  0
 22  3  2  0
 18  9  2  0
  1 35  1  0
  1 36  1  0
  1 37  1  0
  6 38  1  0
 11 39  1  0
 17 40  1  0
 20 41  1  0
 21 42  1  0
 24 43  1  0
 24 44  1  0
 27 45  1  0
 27 46  1  0
 27 47  1  0
 32 48  1  0
 33 49  1  0
 33 50  1  0
 34 51  1  0
M  END
>  <meeko>  (2) 
{"is_sidechain": [false], "free_energy": -9.035, "intermolecular_energy": -11.78, "internal_energy": -0.739}

$$$$
6EQM_unknown_cid_out
     RDKit          3D

 51 53  0  0  0  0  0  0  0  0999 V2000
   33.4630   75.5470   22.7080 C   0  0  0  0  0  0  0  0  0  0  0  0
   32.7100   75.5650   21.3440 C   0  0  1  0  0  0  0  0  0  0  0  0
   31.4910   74.6400   21.4420 C   0  0  0  0  0  0  0  0  0  0  0  0
   31.3200   73.7010   20.4990 N   0  0  0  0  0  0  0  0  0  0  0  0
   30.2880   72.8680   20.4680 C   0  0  0  0  0  0  0  0  0  0  0  0
   30.2430   71.9860   19.3830 N   0  0  0  0  0  0  0  0  0  0  0  0
   29.7050   72.1950   18.1780 C   0  0  0  0  0  0  0  0  0  0  0  0
   29.0490   73.1810   17.8560 O   0  0  0  0  0  0  0  0  0  0  0  0
   29.8660   71.1060   17.1850 C   0  0  0  0  0  0  0  0  0  0  0  0
   28.8870   70.1800   17.1910 N   0  0  0  0  0  0  0  0  0  0  0  0
   28.9360   69.1520   16.3420 C   0  0  0  0  0  0  0  0  0  0  0  0
   29.9720   69.0230   15.4350 C   0  0  0  0  0  0  0  0  0  0  0  0
   29.9710   67.8610   14.4930 C   0  0  0  0  0  0  0  0  0  0  0  0
   29.6940   68.2700   13.2540 F   0  0  0  0  0  0  0  0  0  0  0  0
   31.1370   67.1950   14.5170 F   0  0  0  0  0  0  0  0  0  0  0  0
   28.9580   67.0520   14.8450 F   0  0  0  0  0  0  0  0  0  0  0  0
   31.0040   69.9650   15.3950 C   0  0  0  0  0  0  0  0  0  0  0  0
   30.9350   71.0270   16.2790 C   0  0  0  0  0  0  0  0  0  0  0  0
   32.2310   72.2170   16.2730 Cl  0  0  0  0  0  0  0  0  0  0  0  0
   29.3310   72.8580   21.5080 C   0  0  0  0  0  0  0  0  0  0  0  0
   29.4550   73.8130   22.5130 C   0  0  0  0  0  0  0  0  0  0  0  0
   30.5040   74.7170   22.4630 C   0  0  0  0  0  0  0  0  0  0  0  0
   30.6330   75.6170   23.4240 F   0  0  0  0  0  0  0  0  0  0  0  0
   32.2280   76.9850   20.9740 C   0  0  0  0  0  0  0  0  0  0  0  0
   31.6640   76.8660   19.6510 O   0  0  0  0  0  0  0  0  0  0  0  0
   32.4960   76.4020   18.5810 C   0  0  1  0  0  0  0  0  0  0  0  0
   31.5420   75.7240   17.5440 C   0  0  0  0  0  0  0  0  0  0  0  0
   33.1470   77.6810   18.0260 C   0  0  0  0  0  0  0  0  0  0  0  0
   33.4890   77.4410   16.7420 F   0  0  0  0  0  0  0  0  0  0  0  0
   32.2100   78.6690   18.0350 F   0  0  0  0  0  0  0  0  0  0  0  0
   34.2470   78.0080   18.7470 F   0  0  0  0  0  0  0  0  0  0  0  0
   33.5620   75.4240   19.1130 C   0  0  0  0  0  0  0  0  0  0  0  0
   34.4520   74.9200   18.2730 N   0  0  0  0  0  0  0  0  0  0  0  0
   33.6380   75.0450   20.3350 N   0  0  0  0  0  0  0  0  0  0  0  0
   32.7326   75.5645   23.5303 H   0  0  0  0  0  0  0  0  0  0  0  0
   34.0725   74.6340   22.7783 H   0  0  0  0  0  0  0  0  0  0  0  0
   34.1155   76.4298   22.7783 H   0  0  0  0  0  0  0  0  0  0  0  0
   30.6770   71.0630   19.5310 H   0  0  0  0  0  0  0  0  0  0  0  0
   28.1389   68.3942   16.3638 H   0  0  0  0  0  0  0  0  0  0  0  0
   31.8399   69.8656   14.6870 H   0  0  0  0  0  0  0  0  0  0  0  0
   28.5154   72.1201   21.5227 H   0  0  0  0  0  0  0  0  0  0  0  0
   28.7282   73.8497   23.3379 H   0  0  0  0  0  0  0  0  0  0  0  0
   31.4656   77.3307   21.6876 H   0  0  0  0  0  0  0  0  0  0  0  0
   33.0491   77.7164   21.0043 H   0  0  0  0  0  0  0  0  0  0  0  0
   30.7577   75.1666   18.0771 H   0  0  0  0  0  0  0  0  0  0  0  0
   31.0783   76.4963   16.9127 H   0  0  0  0  0  0  0  0  0  0  0  0
   32.1189   75.0321   16.9127 H   0  0  0  0  0  0  0  0  0  0  0  0
   32.8890   74.5786   18.9072 H   0  0  0  0  0  0  0  0  0  0  0  0
   34.2890   75.3020   17.3310 H   0  0  0  0  0  0  0  0  0  0  0  0
   35.4000   75.1700   18.5870 H   0  0  0  0  0  0  0  0  0  0  0  0
   34.5870   75.2830   20.6590 H   0  0  0  0  0  0  0  0  0  0  0  0
  2  1  1  1
  2  3  1  0
  3  4  1  0
  4  5  2  0
  5  6  1  0
  6  7  1  0
  7  8  2  0
  7  9  1  0
  9 10  1  0
 10 11  2  0
 11 12  1  0
 12 13  1  0
 13 14  1  0
 13 15  1  0
 13 16  1  0
 12 17  2  0
 17 18  1  0
 18 19  1  0
  5 20  1  0
 20 21  2  0
 21 22  1  0
 22 23  1  0
  2 24  1  0
 24 25  1  0
 25 26  1  0
 26 27  1  6
 26 28  1  0
 28 29  1  0
 28 30  1  0
 28 31  1  0
 26 32  1  0
 32 33  1  0
 32 34  1  0
 34  2  1  0
 22  3  2  0
 18  9  2  0
  1 35  1  0
  1 36  1  0
  1 37  1  0
  6 38  1  0
 11 39  1  0
 17 40  1  0
 20 41  1  0
 21 42  1  0
 24 43  1  0
 24 44  1  0
 27 45  1  0
 27 46  1  0
 27 47  1  0
 32 48  1  0
 33 49  1  0
 33 50  1  0
 34 51  1  0
M  END
>  <meeko>  (3) 
{"is_sidechain": [false], "free_energy": -8.869, "intermolecular_energy": -11.193, "internal_energy": -1.106}

$$$$
6EQM_unknown_cid_out
     RDKit          3D

 51 53  0  0  0  0  0  0  0  0999 V2000
   29.1160   78.7000   19.1790 C   0  0  0  0  0  0  0  0  0  0  0  0
   29.9660   77.4010   19.3190 C   0  0  1  0  0  0  0  0  0  0  0  0
   30.5690   77.0580   17.9510 C   0  0  0  0  0  0  0  0  0  0  0  0
   30.4060   75.8160   17.4700 N   0  0  0  0  0  0  0  0  0  0  0  0
   30.9090   75.4020   16.3150 C   0  0  0  0  0  0  0  0  0  0  0  0
   30.6840   74.0590   15.9920 N   0  0  0  0  0  0  0  0  0  0  0  0
   31.4030   72.9960   16.3600 C   0  0  0  0  0  0  0  0  0  0  0  0
   32.4710   73.0370   16.9660 O   0  0  0  0  0  0  0  0  0  0  0  0
   30.8910   71.6720   15.9330 C   0  0  0  0  0  0  0  0  0  0  0  0
   31.4680   71.1670   14.8260 N   0  0  0  0  0  0  0  0  0  0  0  0
   31.0770   69.9830   14.3500 C   0  0  0  0  0  0  0  0  0  0  0  0
   30.0940   69.2480   14.9850 C   0  0  0  0  0  0  0  0  0  0  0  0
   29.7030   67.9180   14.4200 C   0  0  0  0  0  0  0  0  0  0  0  0
   28.8470   67.3020   15.2360 F   0  0  0  0  0  0  0  0  0  0  0  0
   29.1790   68.0310   13.1880 F   0  0  0  0  0  0  0  0  0  0  0  0
   30.8030   67.1480   14.3960 F   0  0  0  0  0  0  0  0  0  0  0  0
   29.4730   69.7360   16.1380 C   0  0  0  0  0  0  0  0  0  0  0  0
   29.8940   70.9620   16.6210 C   0  0  0  0  0  0  0  0  0  0  0  0
   29.1170   71.6170   18.0570 Cl  0  0  0  0  0  0  0  0  0  0  0  0
   31.5860   76.2970   15.4550 C   0  0  0  0  0  0  0  0  0  0  0  0
   31.7890   77.5990   15.9030 C   0  0  0  0  0  0  0  0  0  0  0  0
   31.3160   77.9670   17.1530 C   0  0  0  0  0  0  0  0  0  0  0  0
   31.4950   79.2070   17.5750 F   0  0  0  0  0  0  0  0  0  0  0  0
   31.1120   77.5720   20.3400 C   0  0  0  0  0  0  0  0  0  0  0  0
   31.7270   76.2710   20.4480 O   0  0  0  0  0  0  0  0  0  0  0  0
   30.9300   75.1610   20.8790 C   0  0  1  0  0  0  0  0  0  0  0  0
   31.5770   73.8850   20.2500 C   0  0  0  0  0  0  0  0  0  0  0  0
   31.0500   75.1810   22.4130 C   0  0  0  0  0  0  0  0  0  0  0  0
   30.6210   73.9870   22.8720 F   0  0  0  0  0  0  0  0  0  0  0  0
   32.3700   75.3050   22.7300 F   0  0  0  0  0  0  0  0  0  0  0  0
   30.2990   76.1790   22.9380 F   0  0  0  0  0  0  0  0  0  0  0  0
   29.4650   75.3460   20.4370 C   0  0  0  0  0  0  0  0  0  0  0  0
   28.5670   74.4370   20.7810 N   0  0  0  0  0  0  0  0  0  0  0  0
   29.0500   76.3320   19.7300 N   0  0  0  0  0  0  0  0  0  0  0  0
   28.8650   79.0835   20.1790 H   0  0  0  0  0  0  0  0  0  0  0  0
   29.6931   79.4584   18.6296 H   0  0  0  0  0  0  0  0  0  0  0  0
   28.1900   78.4748   18.6296 H   0  0  0  0  0  0  0  0  0  0  0  0
   29.8630   73.8680   15.4000 H   0  0  0  0  0  0  0  0  0  0  0  0
   31.5449   69.5857   13.4372 H   0  0  0  0  0  0  0  0  0  0  0  0
   28.6789   69.1663   16.6427 H   0  0  0  0  0  0  0  0  0  0  0  0
   31.9405   75.9750   14.4647 H   0  0  0  0  0  0  0  0  0  0  0  0
   32.3189   78.3279   15.2722 H   0  0  0  0  0  0  0  0  0  0  0  0
   31.8406   78.3133   19.9800 H   0  0  0  0  0  0  0  0  0  0  0  0
   30.7434   77.9319   21.3119 H   0  0  0  0  0  0  0  0  0  0  0  0
   31.9176   73.2134   21.0518 H   0  0  0  0  0  0  0  0  0  0  0  0
   30.8334   73.3656   19.6277 H   0  0  0  0  0  0  0  0  0  0  0  0
   32.4355   74.1779   19.6277 H   0  0  0  0  0  0  0  0  0  0  0  0
   29.6739   74.7894   19.5115 H   0  0  0  0  0  0  0  0  0  0  0  0
   28.9240   73.8860   21.5750 H   0  0  0  0  0  0  0  0  0  0  0  0
   27.6910   74.9050   21.0520 H   0  0  0  0  0  0  0  0  0  0  0  0
   28.2960   76.7830   20.2680 H   0  0  0  0  0  0  0  0  0  0  0  0
  2  1  1  6
  2  3  1  0
  3  4  1  0
  4  5  2  0
  5  6  1  0
  6  7  1  0
  7  8  2  0
  7  9  1  0
  9 10  1  0
 10 11  2  0
 11 12  1  0
 12 13  1  0
 13 14  1  0
 13 15  1  0
 13 16  1  0
 12 17  2  0
 17 18  1  0
 18 19  1  0
  5 20  1  0
 20 21  2  0
 21 22  1  0
 22 23  1  0
  2 24  1  0
 24 25  1  0
 25 26  1  0
 26 27  1  6
 26 28  1  0
 28 29  1  0
 28 30  1  0
 28 31  1  0
 26 32  1  0
 32 33  1  0
 32 34  1  0
 34  2  1  0
 22  3  2  0
 18  9  2  0
  1 35  1  0
  1 36  1  0
  1 37  1  0
  6 38  1  0
 11 39  1  0
 17 40  1  0
 20 41  1  0
 21 42  1  0
 24 43  1  0
 24 44  1  0
 27 45  1  0
 27 46  1  0
 27 47  1  0
 32 48  1  0
 33 49  1  0
 33 50  1  0
 34 51  1  0
M  END
>  <meeko>  (4) 
{"is_sidechain": [false], "free_energy": -8.768, "intermolecular_energy": -11.184, "internal_energy": -0.981}

$$$$
6EQM_unknown_cid_out
     RDKit          3D

 51 53  0  0  0  0  0  0  0  0999 V2000
   33.5870   75.2500   20.0380 C   0  0  0  0  0  0  0  0  0  0  0  0
   32.1240   74.9710   19.5770 C   0  0  1  0  0  0  0  0  0  0  0  0
   31.1670   75.7780   20.4620 C   0  0  0  0  0  0  0  0  0  0  0  0
   30.1850   76.4780   19.8740 N   0  0  0  0  0  0  0  0  0  0  0  0
   29.3200   77.2340   20.5380 C   0  0  0  0  0  0  0  0  0  0  0  0
   28.3930   77.9350   19.7590 N   0  0  0  0  0  0  0  0  0  0  0  0
   28.0210   79.2120   19.8790 C   0  0  0  0  0  0  0  0  0  0  0  0
   28.3600   79.9680   20.7860 O   0  0  0  0  0  0  0  0  0  0  0  0
   27.0660   79.7200   18.8650 C   0  0  0  0  0  0  0  0  0  0  0  0
   25.7990   79.2870   19.0060 N   0  0  0  0  0  0  0  0  0  0  0  0
   24.8600   79.6780   18.1430 C   0  0  0  0  0  0  0  0  0  0  0  0
   25.1580   80.5410   17.1060 C   0  0  0  0  0  0  0  0  0  0  0  0
   24.0640   80.9630   16.1750 C   0  0  0  0  0  0  0  0  0  0  0  0
   23.9380   82.2900   16.1810 F   0  0  0  0  0  0  0  0  0  0  0  0
   24.2700   80.5170   14.9250 F   0  0  0  0  0  0  0  0  0  0  0  0
   22.9080   80.4840   16.6630 F   0  0  0  0  0  0  0  0  0  0  0  0
   26.4600   81.0170   16.9280 C   0  0  0  0  0  0  0  0  0  0  0  0
   27.4210   80.6050   17.8340 C   0  0  0  0  0  0  0  0  0  0  0  0
   29.0760   81.1650   17.6250 Cl  0  0  0  0  0  0  0  0  0  0  0  0
   29.3240   77.2720   21.9500 C   0  0  0  0  0  0  0  0  0  0  0  0
   30.3220   76.5670   22.6170 C   0  0  0  0  0  0  0  0  0  0  0  0
   31.2560   75.8550   21.8800 C   0  0  0  0  0  0  0  0  0  0  0  0
   32.1980   75.1730   22.5090 F   0  0  0  0  0  0  0  0  0  0  0  0
   31.9000   75.3750   18.1040 C   0  0  0  0  0  0  0  0  0  0  0  0
   30.5560   74.9520   17.7910 O   0  0  0  0  0  0  0  0  0  0  0  0
   30.2190   73.5650   17.9110 C   0  0  1  0  0  0  0  0  0  0  0  0
   28.6860   73.5100   18.2110 C   0  0  0  0  0  0  0  0  0  0  0  0
   30.5680   72.9690   16.5370 C   0  0  0  0  0  0  0  0  0  0  0  0
   29.6640   72.0030   16.2690 F   0  0  0  0  0  0  0  0  0  0  0  0
   30.4240   73.9510   15.6030 F   0  0  0  0  0  0  0  0  0  0  0  0
   31.8180   72.4460   16.5460 F   0  0  0  0  0  0  0  0  0  0  0  0
   31.0520   72.9040   19.0280 C   0  0  0  0  0  0  0  0  0  0  0  0
   30.9070   71.6100   19.2610 N   0  0  0  0  0  0  0  0  0  0  0  0
   31.8800   73.5380   19.7740 N   0  0  0  0  0  0  0  0  0  0  0  0
   33.6298   75.2582   21.1371 H   0  0  0  0  0  0  0  0  0  0  0  0
   34.2499   74.4621   19.6511 H   0  0  0  0  0  0  0  0  0  0  0  0
   33.9134   76.2266   19.6511 H   0  0  0  0  0  0  0  0  0  0  0  0
   27.9430   77.4020   19.0020 H   0  0  0  0  0  0  0  0  0  0  0  0
   23.8309   79.3071   18.2589 H   0  0  0  0  0  0  0  0  0  0  0  0
   26.7113   81.6941   16.0983 H   0  0  0  0  0  0  0  0  0  0  0  0
   28.5630   77.8404   22.5047 H   0  0  0  0  0  0  0  0  0  0  0  0
   30.3691   76.5747   23.7160 H   0  0  0  0  0  0  0  0  0  0  0  0
   31.9985   76.4640   17.9843 H   0  0  0  0  0  0  0  0  0  0  0  0
   32.6408   74.9121   17.4355 H   0  0  0  0  0  0  0  0  0  0  0  0
   28.5253   73.5042   19.2992 H   0  0  0  0  0  0  0  0  0  0  0  0
   28.1947   74.3911   17.7725 H   0  0  0  0  0  0  0  0  0  0  0  0
   28.2591   72.5960   17.7725 H   0  0  0  0  0  0  0  0  0  0  0  0
   30.2544   73.1239   19.7529 H   0  0  0  0  0  0  0  0  0  0  0  0
   30.9880   71.4320   20.2730 H   0  0  0  0  0  0  0  0  0  0  0  0
   29.9800   71.3030   18.9310 H   0  0  0  0  0  0  0  0  0  0  0  0
   32.7910   73.0680   19.6680 H   0  0  0  0  0  0  0  0  0  0  0  0
  2  1  1  1
  2  3  1  0
  3  4  1  0
  4  5  2  0
  5  6  1  0
  6  7  1  0
  7  8  2  0
  7  9  1  0
  9 10  1  0
 10 11  2  0
 11 12  1  0
 12 13  1  0
 13 14  1  0
 13 15  1  0
 13 16  1  0
 12 17  2  0
 17 18  1  0
 18 19  1  0
  5 20  1  0
 20 21  2  0
 21 22  1  0
 22 23  1  0
  2 24  1  0
 24 25  1  0
 25 26  1  0
 26 27  1  1
 26 28  1  0
 28 29  1  0
 28 30  1  0
 28 31  1  0
 26 32  1  0
 32 33  1  0
 32 34  1  0
 34  2  1  0
 22  3  2  0
 18  9  2  0
  1 35  1  0
  1 36  1  0
  1 37  1  0
  6 38  1  0
 11 39  1  0
 17 40  1  0
 20 41  1  0
 21 42  1  0
 24 43  1  0
 24 44  1  0
 27 45  1  0
 27 46  1  0
 27 47  1  0
 32 48  1  0
 33 49  1  0
 33 50  1  0
 34 51  1  0
M  END
>  <meeko>  (5) 
{"is_sidechain": [false], "free_energy": -8.484, "intermolecular_energy": -11.641, "internal_energy": -0.15}

$$$$
6EQM_unknown_cid_out
     RDKit          3D

 51 53  0  0  0  0  0  0  0  0999 V2000
   34.4320   69.0000   15.4540 C   0  0  0  0  0  0  0  0  0  0  0  0
   33.1690   69.8910   15.6570 C   0  0  1  0  0  0  0  0  0  0  0  0
   33.5850   71.3640   15.5550 C   0  0  0  0  0  0  0  0  0  0  0  0
   33.2060   72.2070   16.5270 N   0  0  0  0  0  0  0  0  0  0  0  0
   33.4820   73.5050   16.5250 C   0  0  0  0  0  0  0  0  0  0  0  0
   32.9640   74.2450   17.5950 N   0  0  0  0  0  0  0  0  0  0  0  0
   33.5920   74.6180   18.7130 C   0  0  0  0  0  0  0  0  0  0  0  0
   34.7220   74.2680   19.0430 O   0  0  0  0  0  0  0  0  0  0  0  0
   32.8190   75.4650   19.6520 C   0  0  0  0  0  0  0  0  0  0  0  0
   33.1940   76.7580   19.6960 N   0  0  0  0  0  0  0  0  0  0  0  0
   32.5700   77.6080   20.5130 C   0  0  0  0  0  0  0  0  0  0  0  0
   31.5220   77.1900   21.3130 C   0  0  0  0  0  0  0  0  0  0  0  0
   30.8440   78.1860   22.1990 C   0  0  0  0  0  0  0  0  0  0  0  0
   30.9530   77.8190   23.4770 F   0  0  0  0  0  0  0  0  0  0  0  0
   31.3300   79.4260   22.0250 F   0  0  0  0  0  0  0  0  0  0  0  0
   29.5310   78.1510   21.9200 F   0  0  0  0  0  0  0  0  0  0  0  0
   31.1000   75.8570   21.2940 C   0  0  0  0  0  0  0  0  0  0  0  0
   31.7560   74.9910   20.4370 C   0  0  0  0  0  0  0  0  0  0  0  0
   31.2660   73.3010   20.4070 Cl  0  0  0  0  0  0  0  0  0  0  0  0
   34.2960   74.0730   15.5200 C   0  0  0  0  0  0  0  0  0  0  0  0
   34.7180   73.2460   14.4820 C   0  0  0  0  0  0  0  0  0  0  0  0
   34.3370   71.9140   14.4800 C   0  0  0  0  0  0  0  0  0  0  0  0
   34.7470   71.1220   13.5030 F   0  0  0  0  0  0  0  0  0  0  0  0
   32.0880   69.6040   14.5920 C   0  0  0  0  0  0  0  0  0  0  0  0
   30.9510   70.4060   14.9750 O   0  0  0  0  0  0  0  0  0  0  0  0
   30.3550   70.1950   16.2600 C   0  0  1  0  0  0  0  0  0  0  0  0
   29.7000   71.5540   16.6700 C   0  0  0  0  0  0  0  0  0  0  0  0
   29.3080   69.0930   16.0170 C   0  0  0  0  0  0  0  0  0  0  0  0
   28.9160   69.1800   14.7290 F   0  0  0  0  0  0  0  0  0  0  0  0
   29.9180   67.8870   16.1910 F   0  0  0  0  0  0  0  0  0  0  0  0
   28.2440   69.2550   16.8400 F   0  0  0  0  0  0  0  0  0  0  0  0
   31.4170   69.7330   17.2780 C   0  0  0  0  0  0  0  0  0  0  0  0
   31.0450   69.4490   18.5150 N   0  0  0  0  0  0  0  0  0  0  0  0
   32.6650   69.6190   17.0060 N   0  0  0  0  0  0  0  0  0  0  0  0
   34.8394   68.7126   16.4345 H   0  0  0  0  0  0  0  0  0  0  0  0
   34.1561   68.0955   14.8921 H   0  0  0  0  0  0  0  0  0  0  0  0
   35.1916   69.5633   14.8921 H   0  0  0  0  0  0  0  0  0  0  0  0
   31.9810   74.5370   17.5080 H   0  0  0  0  0  0  0  0  0  0  0  0
   32.8942   78.6585   20.5511 H   0  0  0  0  0  0  0  0  0  0  0  0
   30.2773   75.5098   21.9363 H   0  0  0  0  0  0  0  0  0  0  0  0
   34.5869   75.1332   15.5560 H   0  0  0  0  0  0  0  0  0  0  0  0
   35.3467   73.6459   13.6728 H   0  0  0  0  0  0  0  0  0  0  0  0
   32.4451   69.8946   13.5930 H   0  0  0  0  0  0  0  0  0  0  0  0
   31.8363   68.5343   14.5422 H   0  0  0  0  0  0  0  0  0  0  0  0
   29.6645   71.6277   17.7670 H   0  0  0  0  0  0  0  0  0  0  0  0
   30.2964   72.3852   16.2658 H   0  0  0  0  0  0  0  0  0  0  0  0
   28.6783   71.6053   16.2658 H   0  0  0  0  0  0  0  0  0  0  0  0
   31.5915   70.7789   17.5706 H   0  0  0  0  0  0  0  0  0  0  0  0
   31.8480   69.0670   19.0360 H   0  0  0  0  0  0  0  0  0  0  0  0
   30.7110   70.3060   18.9780 H   0  0  0  0  0  0  0  0  0  0  0  0
   32.9260   68.6470   17.2270 H   0  0  0  0  0  0  0  0  0  0  0  0
  2  1  1  6
  2  3  1  0
  3  4  1  0
  4  5  2  0
  5  6  1  0
  6  7  1  0
  7  8  2  0
  7  9  1  0
  9 10  1  0
 10 11  2  0
 11 12  1  0
 12 13  1  0
 13 14  1  0
 13 15  1  0
 13 16  1  0
 12 17  2  0
 17 18  1  0
 18 19  1  0
  5 20  1  0
 20 21  2  0
 21 22  1  0
 22 23  1  0
  2 24  1  0
 24 25  1  0
 25 26  1  0
 26 27  1  1
 26 28  1  0
 28 29  1  0
 28 30  1  0
 28 31  1  0
 26 32  1  0
 32 33  1  0
 32 34  1  0
 34  2  1  0
 22  3  2  0
 18  9  2  0
  1 35  1  0
  1 36  1  0
  1 37  1  0
  6 38  1  0
 11 39  1  0
 17 40  1  0
 20 41  1  0
 21 42  1  0
 24 43  1  0
 24 44  1  0
 27 45  1  0
 27 46  1  0
 27 47  1  0
 32 48  1  0
 33 49  1  0
 33 50  1  0
 34 51  1  0
M  END
>  <meeko>  (6) 
{"is_sidechain": [false], "free_energy": -8.467, "intermolecular_energy": -10.923, "internal_energy": -0.846}

$$$$
6EQM_unknown_cid_out
     RDKit          3D

 51 53  0  0  0  0  0  0  0  0999 V2000
   30.4630   79.0960   17.9330 C   0  0  0  0  0  0  0  0  0  0  0  0
   30.9990   77.8350   18.6770 C   0  0  1  0  0  0  0  0  0  0  0  0
   31.9960   77.1120   17.7620 C   0  0  0  0  0  0  0  0  0  0  0  0
   31.6870   75.8830   17.3210 N   0  0  0  0  0  0  0  0  0  0  0  0
   32.4850   75.1550   16.5530 C   0  0  0  0  0  0  0  0  0  0  0  0
   32.0250   73.8740   16.2270 N   0  0  0  0  0  0  0  0  0  0  0  0
   31.5050   73.4590   15.0690 C   0  0  0  0  0  0  0  0  0  0  0  0
   31.2380   74.1810   14.1130 O   0  0  0  0  0  0  0  0  0  0  0  0
   31.1650   72.0190   14.9750 C   0  0  0  0  0  0  0  0  0  0  0  0
   29.8580   71.7520   14.7930 N   0  0  0  0  0  0  0  0  0  0  0  0
   29.4410   70.4880   14.7020 C   0  0  0  0  0  0  0  0  0  0  0  0
   30.3340   69.4350   14.7750 C   0  0  0  0  0  0  0  0  0  0  0  0
   29.8170   68.0360   14.6500 C   0  0  0  0  0  0  0  0  0  0  0  0
   29.1360   67.8940   13.5120 F   0  0  0  0  0  0  0  0  0  0  0  0
   30.8050   67.1280   14.7220 F   0  0  0  0  0  0  0  0  0  0  0  0
   28.9250   67.8420   15.6350 F   0  0  0  0  0  0  0  0  0  0  0  0
   31.6990   69.6700   14.9600 C   0  0  0  0  0  0  0  0  0  0  0  0
   32.1140   70.9870   15.0470 C   0  0  0  0  0  0  0  0  0  0  0  0
   33.8230   71.3190   15.3050 Cl  0  0  0  0  0  0  0  0  0  0  0  0
   33.7010   75.6820   16.0620 C   0  0  0  0  0  0  0  0  0  0  0  0
   34.0760   76.9530   16.4890 C   0  0  0  0  0  0  0  0  0  0  0  0
   33.2500   77.6470   17.3590 C   0  0  0  0  0  0  0  0  0  0  0  0
   33.5960   78.8600   17.7560 F   0  0  0  0  0  0  0  0  0  0  0  0
   31.7120   78.2070   19.9950 C   0  0  0  0  0  0  0  0  0  0  0  0
   32.0420   76.9480   20.6200 O   0  0  0  0  0  0  0  0  0  0  0  0
   30.9860   76.0370   20.9450 C   0  0  1  0  0  0  0  0  0  0  0  0
   31.6160   74.6060   20.9170 C   0  0  0  0  0  0  0  0  0  0  0  0
   30.5470   76.4540   22.3590 C   0  0  0  0  0  0  0  0  0  0  0  0
   30.2160   75.3320   23.0320 F   0  0  0  0  0  0  0  0  0  0  0  0
   31.6180   77.0180   22.9840 F   0  0  0  0  0  0  0  0  0  0  0  0
   29.4840   77.2930   22.3010 F   0  0  0  0  0  0  0  0  0  0  0  0
   29.8240   76.1790   19.9410 C   0  0  0  0  0  0  0  0  0  0  0  0
   28.7370   75.4430   20.1040 N   0  0  0  0  0  0  0  0  0  0  0  0
   29.8470   76.9650   18.9280 N   0  0  0  0  0  0  0  0  0  0  0  0
   30.1434   79.8480   18.6694 H   0  0  0  0  0  0  0  0  0  0  0  0
   31.2603   79.5162   17.3023 H   0  0  0  0  0  0  0  0  0  0  0  0
   29.6072   78.8135   17.3023 H   0  0  0  0  0  0  0  0  0  0  0  0
   32.0950   73.1650   16.9710 H   0  0  0  0  0  0  0  0  0  0  0  0
   28.3693   70.2802   14.5667 H   0  0  0  0  0  0  0  0  0  0  0  0
   32.4164   68.8394   15.0337 H   0  0  0  0  0  0  0  0  0  0  0  0
   34.3299   75.1074   15.3660 H   0  0  0  0  0  0  0  0  0  0  0  0
   35.0177   77.4015   16.1396 H   0  0  0  0  0  0  0  0  0  0  0  0
   32.6246   78.7855   19.7890 H   0  0  0  0  0  0  0  0  0  0  0  0
   31.0777   78.8312   20.6416 H   0  0  0  0  0  0  0  0  0  0  0  0
   31.7712   74.2535   21.9474 H   0  0  0  0  0  0  0  0  0  0  0  0
   30.9380   73.9171   20.3920 H   0  0  0  0  0  0  0  0  0  0  0  0
   32.5820   74.6409   20.3920 H   0  0  0  0  0  0  0  0  0  0  0  0
   30.2661   75.3880   19.3174 H   0  0  0  0  0  0  0  0  0  0  0  0
   28.4540   75.0430   19.1970 H   0  0  0  0  0  0  0  0  0  0  0  0
   28.9350   74.6810   20.7680 H   0  0  0  0  0  0  0  0  0  0  0  0
   29.0260   77.5820   19.0170 H   0  0  0  0  0  0  0  0  0  0  0  0
  2  1  1  6
  2  3  1  0
  3  4  1  0
  4  5  2  0
  5  6  1  0
  6  7  1  0
  7  8  2  0
  7  9  1  0
  9 10  1  0
 10 11  2  0
 11 12  1  0
 12 13  1  0
 13 14  1  0
 13 15  1  0
 13 16  1  0
 12 17  2  0
 17 18  1  0
 18 19  1  0
  5 20  1  0
 20 21  2  0
 21 22  1  0
 22 23  1  0
  2 24  1  0
 24 25  1  0
 25 26  1  0
 26 27  1  1
 26 28  1  0
 28 29  1  0
 28 30  1  0
 28 31  1  0
 26 32  1  0
 32 33  1  0
 32 34  1  0
 34  2  1  0
 22  3  2  0
 18  9  2  0
  1 35  1  0
  1 36  1  0
  1 37  1  0
  6 38  1  0
 11 39  1  0
 17 40  1  0
 20 41  1  0
 21 42  1  0
 24 43  1  0
 24 44  1  0
 27 45  1  0
 27 46  1  0
 27 47  1  0
 32 48  1  0
 33 49  1  0
 33 50  1  0
 34 51  1  0
M  END
>  <meeko>  (7) 
{"is_sidechain": [false], "free_energy": -8.34, "intermolecular_energy": -10.7, "internal_energy": -0.9}

$$$$
6EQM_unknown_cid_out
     RDKit          3D

 51 53  0  0  0  0  0  0  0  0999 V2000
   28.2720   69.8920   16.8660 C   0  0  0  0  0  0  0  0  0  0  0  0
   29.5230   70.7890   17.1140 C   0  0  1  0  0  0  0  0  0  0  0  0
   29.3460   71.5220   18.4500 C   0  0  0  0  0  0  0  0  0  0  0  0
   29.3150   72.8630   18.4470 N   0  0  0  0  0  0  0  0  0  0  0  0
   29.1970   73.5990   19.5440 C   0  0  0  0  0  0  0  0  0  0  0  0
   29.2340   74.9860   19.3600 N   0  0  0  0  0  0  0  0  0  0  0  0
   30.2320   75.8250   19.6500 C   0  0  0  0  0  0  0  0  0  0  0  0
   31.2650   75.5220   20.2420 O   0  0  0  0  0  0  0  0  0  0  0  0
   30.0290   77.2460   19.2810 C   0  0  0  0  0  0  0  0  0  0  0  0
   30.3920   77.5670   18.0240 N   0  0  0  0  0  0  0  0  0  0  0  0
   30.2570   78.8220   17.5900 C   0  0  0  0  0  0  0  0  0  0  0  0
   29.7320   79.8070   18.4060 C   0  0  0  0  0  0  0  0  0  0  0  0
   29.5870   81.1950   17.8650 C   0  0  0  0  0  0  0  0  0  0  0  0
   29.2120   81.1560   16.5860 F   0  0  0  0  0  0  0  0  0  0  0  0
   28.7200   81.9260   18.5860 F   0  0  0  0  0  0  0  0  0  0  0  0
   30.8040   81.7640   17.8720 F   0  0  0  0  0  0  0  0  0  0  0  0
   29.3410   79.5130   19.7150 C   0  0  0  0  0  0  0  0  0  0  0  0
   29.4820   78.2070   20.1470 C   0  0  0  0  0  0  0  0  0  0  0  0
   29.0220   77.8080   21.7980 Cl  0  0  0  0  0  0  0  0  0  0  0  0
   28.9960   72.9960   20.8050 C   0  0  0  0  0  0  0  0  0  0  0  0
   29.0210   71.6050   20.8710 C   0  0  0  0  0  0  0  0  0  0  0  0
   29.2290   70.8760   19.7120 C   0  0  0  0  0  0  0  0  0  0  0  0
   29.2400   69.5550   19.7680 F   0  0  0  0  0  0  0  0  0  0  0  0
   30.8220   69.9560   17.1720 C   0  0  0  0  0  0  0  0  0  0  0  0
   31.8900   70.9200   17.2860 O   0  0  0  0  0  0  0  0  0  0  0  0
   32.0540   71.8990   16.2530 C   0  0  1  0  0  0  0  0  0  0  0  0
   32.7270   73.1390   16.9260 C   0  0  0  0  0  0  0  0  0  0  0  0
   32.9770   71.2180   15.2270 C   0  0  0  0  0  0  0  0  0  0  0  0
   33.8520   70.4510   15.9110 F   0  0  0  0  0  0  0  0  0  0  0  0
   32.2130   70.3980   14.4530 F   0  0  0  0  0  0  0  0  0  0  0  0
   33.6430   72.1450   14.4960 F   0  0  0  0  0  0  0  0  0  0  0  0
   30.6910   72.2500   15.6230 C   0  0  0  0  0  0  0  0  0  0  0  0
   30.6460   73.1110   14.6200 N   0  0  0  0  0  0  0  0  0  0  0  0
   29.5730   71.7670   16.0240 N   0  0  0  0  0  0  0  0  0  0  0  0
   27.8438   69.5849   17.8316 H   0  0  0  0  0  0  0  0  0  0  0  0
   27.5215   70.4590   16.2957 H   0  0  0  0  0  0  0  0  0  0  0  0
   28.5682   68.9992   16.2957 H   0  0  0  0  0  0  0  0  0  0  0  0
   28.3900   75.4120   18.9520 H   0  0  0  0  0  0  0  0  0  0  0  0
   30.5686   79.0768   16.5663 H   0  0  0  0  0  0  0  0  0  0  0  0
   28.9359   80.2920   20.3775 H   0  0  0  0  0  0  0  0  0  0  0  0
   28.8254   73.6047   21.7052 H   0  0  0  0  0  0  0  0  0  0  0  0
   28.8771   71.0912   21.8329 H   0  0  0  0  0  0  0  0  0  0  0  0
   30.8120   69.2875   18.0455 H   0  0  0  0  0  0  0  0  0  0  0  0
   30.9393   69.3183   16.2834 H   0  0  0  0  0  0  0  0  0  0  0  0
   32.6719   73.0374   18.0199 H   0  0  0  0  0  0  0  0  0  0  0  0
   33.7807   73.1977   16.6158 H   0  0  0  0  0  0  0  0  0  0  0  0
   32.2020   74.0545   16.6158 H   0  0  0  0  0  0  0  0  0  0  0  0
   30.5734   73.0773   16.3384 H   0  0  0  0  0  0  0  0  0  0  0  0
   31.4680   73.7300   14.6630 H   0  0  0  0  0  0  0  0  0  0  0  0
   30.6480   72.5980   13.7270 H   0  0  0  0  0  0  0  0  0  0  0  0
   29.1370   71.3160   15.2050 H   0  0  0  0  0  0  0  0  0  0  0  0
  2  1  1  6
  2  3  1  0
  3  4  1  0
  4  5  2  0
  5  6  1  0
  6  7  1  0
  7  8  2  0
  7  9  1  0
  9 10  1  0
 10 11  2  0
 11 12  1  0
 12 13  1  0
 13 14  1  0
 13 15  1  0
 13 16  1  0
 12 17  2  0
 17 18  1  0
 18 19  1  0
  5 20  1  0
 20 21  2  0
 21 22  1  0
 22 23  1  0
  2 24  1  0
 24 25  1  0
 25 26  1  0
 26 27  1  1
 26 28  1  0
 28 29  1  0
 28 30  1  0
 28 31  1  0
 26 32  1  0
 32 33  1  0
 32 34  1  0
 34  2  1  0
 22  3  2  0
 18  9  2  0
  1 35  1  0
  1 36  1  0
  1 37  1  0
  6 38  1  0
 11 39  1  0
 17 40  1  0
 20 41  1  0
 21 42  1  0
 24 43  1  0
 24 44  1  0
 27 45  1  0
 27 46  1  0
 27 47  1  0
 32 48  1  0
 33 49  1  0
 33 50  1  0
 34 51  1  0
M  END
>  <meeko>  (8) 
{"is_sidechain": [false], "free_energy": -8.085, "intermolecular_energy": -10.257, "internal_energy": -1.005}

$$$$
6EQM_unknown_cid_out
     RDKit          3D

 51 53  0  0  0  0  0  0  0  0999 V2000
   33.8600   78.3900   18.3570 C   0  0  0  0  0  0  0  0  0  0  0  0
   32.6110   77.5730   18.8070 C   0  0  1  0  0  0  0  0  0  0  0  0
   31.7610   77.2520   17.5710 C   0  0  0  0  0  0  0  0  0  0  0  0
   31.5580   75.9660   17.2470 N   0  0  0  0  0  0  0  0  0  0  0  0
   30.8670   75.5750   16.1850 C   0  0  0  0  0  0  0  0  0  0  0  0
   30.7990   74.1930   15.9710 N   0  0  0  0  0  0  0  0  0  0  0  0
   29.9490   73.3200   16.5170 C   0  0  0  0  0  0  0  0  0  0  0  0
   29.1390   73.5780   17.4040 O   0  0  0  0  0  0  0  0  0  0  0  0
   30.0550   71.9170   16.0530 C   0  0  0  0  0  0  0  0  0  0  0  0
   29.2300   71.5860   15.0410 N   0  0  0  0  0  0  0  0  0  0  0  0
   29.2380   70.3460   14.5500 C   0  0  0  0  0  0  0  0  0  0  0  0
   30.0960   69.3850   15.0520 C   0  0  0  0  0  0  0  0  0  0  0  0
   30.0780   68.0130   14.4560 C   0  0  0  0  0  0  0  0  0  0  0  0
   29.1650   67.2560   15.0640 F   0  0  0  0  0  0  0  0  0  0  0  0
   29.8550   68.0440   13.1320 F   0  0  0  0  0  0  0  0  0  0  0  0
   31.2630   67.4380   14.7210 F   0  0  0  0  0  0  0  0  0  0  0  0
   30.9700   69.6890   16.1000 C   0  0  0  0  0  0  0  0  0  0  0  0
   30.9520   70.9810   16.5940 C   0  0  0  0  0  0  0  0  0  0  0  0
   32.0220   71.3920   17.9290 Cl  0  0  0  0  0  0  0  0  0  0  0  0
   30.2050   76.5140   15.3630 C   0  0  0  0  0  0  0  0  0  0  0  0
   30.3810   77.8650   15.6490 C   0  0  0  0  0  0  0  0  0  0  0  0
   31.1790   78.2330   16.7200 C   0  0  0  0  0  0  0  0  0  0  0  0
   31.3380   79.5150   17.0030 F   0  0  0  0  0  0  0  0  0  0  0  0
   33.0100   76.2490   19.4940 C   0  0  0  0  0  0  0  0  0  0  0  0
   31.7710   75.6680   19.9550 O   0  0  0  0  0  0  0  0  0  0  0  0
   30.9620   76.4050   20.8800 C   0  0  1  0  0  0  0  0  0  0  0  0
   29.4900   75.9320   20.6480 C   0  0  0  0  0  0  0  0  0  0  0  0
   31.4960   75.9950   22.2630 C   0  0  0  0  0  0  0  0  0  0  0  0
   32.5060   76.8330   22.5760 F   0  0  0  0  0  0  0  0  0  0  0  0
   30.4980   76.1800   23.1720 F   0  0  0  0  0  0  0  0  0  0  0  0
   31.9430   74.7160   22.2420 F   0  0  0  0  0  0  0  0  0  0  0  0
   31.1260   77.9210   20.6510 C   0  0  0  0  0  0  0  0  0  0  0  0
   30.4840   78.7660   21.4390 N   0  0  0  0  0  0  0  0  0  0  0  0
   31.8440   78.4290   19.7180 N   0  0  0  0  0  0  0  0  0  0  0  0
   34.4043   78.7461   19.2441 H   0  0  0  0  0  0  0  0  0  0  0  0
   34.5202   77.7486   17.7547 H   0  0  0  0  0  0  0  0  0  0  0  0
   33.5369   79.2519   17.7547 H   0  0  0  0  0  0  0  0  0  0  0  0
   31.4880   73.8030   15.3130 H   0  0  0  0  0  0  0  0  0  0  0  0
   28.5507   70.0835   13.7322 H   0  0  0  0  0  0  0  0  0  0  0  0
   31.6471   68.9287   16.5165 H   0  0  0  0  0  0  0  0  0  0  0  0
   29.5715   76.1885   14.5248 H   0  0  0  0  0  0  0  0  0  0  0  0
   29.8916   78.6323   15.0311 H   0  0  0  0  0  0  0  0  0  0  0  0
   33.5067   75.5781   18.7776 H   0  0  0  0  0  0  0  0  0  0  0  0
   33.7172   76.4136   20.3203 H   0  0  0  0  0  0  0  0  0  0  0  0
   28.9983   75.7740   21.6192 H   0  0  0  0  0  0  0  0  0  0  0  0
   28.9433   76.6997   20.0808 H   0  0  0  0  0  0  0  0  0  0  0  0
   29.4928   74.9895   20.0808 H   0  0  0  0  0  0  0  0  0  0  0  0
   30.2675   77.9100   19.9634 H   0  0  0  0  0  0  0  0  0  0  0  0
   29.9980   79.4700   20.8650 H   0  0  0  0  0  0  0  0  0  0  0  0
   29.7950   78.2510   22.0060 H   0  0  0  0  0  0  0  0  0  0  0  0
   32.5250   79.0520   20.1770 H   0  0  0  0  0  0  0  0  0  0  0  0
  2  1  1  6
  2  3  1  0
  3  4  1  0
  4  5  2  0
  5  6  1  0
  6  7  1  0
  7  8  2  0
  7  9  1  0
  9 10  1  0
 10 11  2  0
 11 12  1  0
 12 13  1  0
 13 14  1  0
 13 15  1  0
 13 16  1  0
 12 17  2  0
 17 18  1  0
 18 19  1  0
  5 20  1  0
 20 21  2  0
 21 22  1  0
 22 23  1  0
  2 24  1  0
 24 25  1  0
 25 26  1  0
 26 27  1  1
 26 28  1  0
 28 29  1  0
 28 30  1  0
 28 31  1  0
 26 32  1  0
 32 33  1  0
 32 34  1  0
 34  2  1  0
 22  3  2  0
 18  9  2  0
  1 35  1  0
  1 36  1  0
  1 37  1  0
  6 38  1  0
 11 39  1  0
 17 40  1  0
 20 41  1  0
 21 42  1  0
 24 43  1  0
 24 44  1  0
 27 45  1  0
 27 46  1  0
 27 47  1  0
 32 48  1  0
 33 49  1  0
 33 50  1  0
 34 51  1  0
M  END
>  <meeko>  (9) 
{"is_sidechain": [false], "free_energy": -8.078, "intermolecular_energy": -10.529, "internal_energy": -0.725}

$$$$
