Arctigenin_64981_out
     RDKit          3D

 51 53  0  0  0  0  0  0  0  0999 V2000
   27.7600   72.2420   19.5280 C   0  0  0  0  0  0  0  0  0  0  0  0
   27.8330   73.2970   18.5710 O   0  0  0  0  0  0  0  0  0  0  0  0
   29.0700   73.8000   18.2970 C   0  0  0  0  0  0  0  0  0  0  0  0
   29.6210   74.7620   19.1430 C   0  0  0  0  0  0  0  0  0  0  0  0
   30.8800   75.2730   18.8630 C   0  0  0  0  0  0  0  0  0  0  0  0
   31.4770   76.3130   19.7770 C   0  0  0  0  0  0  0  0  0  0  0  0
   30.4270   76.9450   20.6810 C   0  0  1  0  0  0  0  0  0  0  0  0
   30.7400   76.6330   22.1230 C   0  0  0  0  0  0  0  0  0  0  0  0
   30.5690   75.5530   22.6670 O   0  0  0  0  0  0  0  0  0  0  0  0
   31.2780   77.7310   22.7350 O   0  0  0  0  0  0  0  0  0  0  0  0
   31.4370   78.7870   21.7810 C   0  0  0  0  0  0  0  0  0  0  0  0
   30.4640   78.4690   20.6620 C   0  0  2  0  0  0  0  0  0  0  0  0
   29.0830   79.0610   20.9540 C   0  0  0  0  0  0  0  0  0  0  0  0
   28.3250   79.3680   19.6880 C   0  0  0  0  0  0  0  0  0  0  0  0
   26.9410   79.4510   19.7250 C   0  0  0  0  0  0  0  0  0  0  0  0
   26.2390   79.7350   18.5530 C   0  0  0  0  0  0  0  0  0  0  0  0
   26.9290   79.9330   17.3580 C   0  0  0  0  0  0  0  0  0  0  0  0
   26.2330   80.2080   16.2200 O   0  0  0  0  0  0  0  0  0  0  0  0
   24.8370   80.4650   16.3590 C   0  0  0  0  0  0  0  0  0  0  0  0
   28.3220   79.8470   17.3340 C   0  0  0  0  0  0  0  0  0  0  0  0
   29.0060   80.0370   16.1720 O   0  0  0  0  0  0  0  0  0  0  0  0
   30.1400   80.9000   16.2200 C   0  0  0  0  0  0  0  0  0  0  0  0
   29.0230   79.5620   18.5050 C   0  0  0  0  0  0  0  0  0  0  0  0
   31.6000   74.8450   17.7570 C   0  0  0  0  0  0  0  0  0  0  0  0
   31.0470   73.8820   16.9130 C   0  0  0  0  0  0  0  0  0  0  0  0
   29.7830   73.3600   17.1820 C   0  0  0  0  0  0  0  0  0  0  0  0
   29.2540   72.4210   16.3490 O   0  0  0  0  0  0  0  0  0  0  0  0
   27.7893   72.6650   20.5430 H   0  0  0  0  0  0  0  0  0  0  0  0
   26.8212   71.6857   19.3895 H   0  0  0  0  0  0  0  0  0  0  0  0
   28.6132   71.5617   19.3895 H   0  0  0  0  0  0  0  0  0  0  0  0
   29.0628   75.1122   20.0238 H   0  0  0  0  0  0  0  0  0  0  0  0
   32.2455   75.8367   20.4036 H   0  0  0  0  0  0  0  0  0  0  0  0
   31.9111   77.1072   19.1519 H   0  0  0  0  0  0  0  0  0  0  0  0
   29.4668   76.5513   20.3162 H   0  0  0  0  0  0  0  0  0  0  0  0
   31.1944   79.7579   22.2376 H   0  0  0  0  0  0  0  0  0  0  0  0
   32.4723   78.8556   21.4156 H   0  0  0  0  0  0  0  0  0  0  0  0
   30.7589   78.8863   19.6879 H   0  0  0  0  0  0  0  0  0  0  0  0
   28.5047   78.3385   21.5486 H   0  0  0  0  0  0  0  0  0  0  0  0
   29.2248   80.0031   21.5038 H   0  0  0  0  0  0  0  0  0  0  0  0
   26.4012   79.2942   20.6705 H   0  0  0  0  0  0  0  0  0  0  0  0
   25.1412   79.8026   18.5720 H   0  0  0  0  0  0  0  0  0  0  0  0
   24.5775   80.5128   17.4269 H   0  0  0  0  0  0  0  0  0  0  0  0
   24.5910   81.4235   15.8787 H   0  0  0  0  0  0  0  0  0  0  0  0
   24.2658   79.6569   15.8787 H   0  0  0  0  0  0  0  0  0  0  0  0
   30.4038   81.1008   17.2688 H   0  0  0  0  0  0  0  0  0  0  0  0
   30.9894   80.4178   15.7141 H   0  0  0  0  0  0  0  0  0  0  0  0
   29.9016   81.8472   15.7141 H   0  0  0  0  0  0  0  0  0  0  0  0
   30.1207   79.4915   18.4909 H   0  0  0  0  0  0  0  0  0  0  0  0
   32.5967   75.2608   17.5479 H   0  0  0  0  0  0  0  0  0  0  0  0
   31.6092   73.5341   16.0339 H   0  0  0  0  0  0  0  0  0  0  0  0
   29.8430   71.9170   15.7340 H   0  0  0  0  0  0  0  0  0  0  0  0
  1  2  1  0
  2  3  1  0
  3  4  1  0
  4  5  2  0
  5  6  1  0
  6  7  1  0
  7  8  1  0
  8  9  2  0
  8 10  1  0
 10 11  1  0
 11 12  1  0
 12 13  1  0
 13 14  1  0
 14 15  1  0
 15 16  2  0
 16 17  1  0
 17 18  1  0
 18 19  1  0
 17 20  2  0
 20 21  1  0
 21 22  1  0
 20 23  1  0
  5 24  1  0
 24 25  2  0
 25 26  1  0
 26 27  1  0
 26  3  2  0
 12  7  1  0
 23 14  2  0
  1 28  1  0
  1 29  1  0
  1 30  1  0
  4 31  1  0
  6 32  1  0
  6 33  1  0
  7 34  1  6
 11 35  1  0
 11 36  1  0
 12 37  1  6
 13 38  1  0
 13 39  1  0
 15 40  1  0
 16 41  1  0
 19 42  1  0
 19 43  1  0
 19 44  1  0
 22 45  1  0
 22 46  1  0
 22 47  1  0
 23 48  1  0
 24 49  1  0
 25 50  1  0
 27 51  1  0
M  END
>  <meeko>  (1) 
{"is_sidechain": [false], "free_energy": -7.135, "intermolecular_energy": -10.263, "internal_energy": -1.439}

$$$$
Arctigenin_64981_out
     RDKit          3D

 51 53  0  0  0  0  0  0  0  0999 V2000
   30.4500   72.1620   16.9050 C   0  0  0  0  0  0  0  0  0  0  0  0
   29.2160   72.5760   17.4870 O   0  0  0  0  0  0  0  0  0  0  0  0
   29.2860   73.4460   18.5340 C   0  0  0  0  0  0  0  0  0  0  0  0
   30.5110   74.0250   18.8630 C   0  0  0  0  0  0  0  0  0  0  0  0
   30.5810   74.9100   19.9290 C   0  0  0  0  0  0  0  0  0  0  0  0
   31.9060   75.5360   20.2850 C   0  0  0  0  0  0  0  0  0  0  0  0
   31.7470   76.9770   20.7510 C   0  0  1  0  0  0  0  0  0  0  0  0
   32.9390   77.3780   21.5830 C   0  0  0  0  0  0  0  0  0  0  0  0
   33.1520   77.0230   22.7320 O   0  0  0  0  0  0  0  0  0  0  0  0
   33.7720   78.1800   20.8540 O   0  0  0  0  0  0  0  0  0  0  0  0
   33.2750   78.3060   19.5180 C   0  0  0  0  0  0  0  0  0  0  0  0
   31.7960   77.9830   19.6050 C   0  0  2  0  0  0  0  0  0  0  0  0
   30.9810   79.2360   19.9330 C   0  0  0  0  0  0  0  0  0  0  0  0
   29.8520   79.4420   18.9550 C   0  0  0  0  0  0  0  0  0  0  0  0
   28.5810   79.7280   19.4320 C   0  0  0  0  0  0  0  0  0  0  0  0
   27.5360   79.9190   18.5270 C   0  0  0  0  0  0  0  0  0  0  0  0
   27.7750   79.8230   17.1570 C   0  0  0  0  0  0  0  0  0  0  0  0
   26.7470   80.0100   16.2830 O   0  0  0  0  0  0  0  0  0  0  0  0
   25.4280   79.7740   16.7720 C   0  0  0  0  0  0  0  0  0  0  0  0
   29.0580   79.5350   16.6890 C   0  0  0  0  0  0  0  0  0  0  0  0
   29.3020   79.4380   15.3530 O   0  0  0  0  0  0  0  0  0  0  0  0
   29.9180   78.2380   14.8920 C   0  0  0  0  0  0  0  0  0  0  0  0
   30.1020   79.3430   17.5940 C   0  0  0  0  0  0  0  0  0  0  0  0
   29.4550   75.2300   20.6730 C   0  0  0  0  0  0  0  0  0  0  0  0
   28.2300   74.6510   20.3420 C   0  0  0  0  0  0  0  0  0  0  0  0
   28.1450   73.7590   19.2730 C   0  0  0  0  0  0  0  0  0  0  0  0
   26.9430   73.1990   18.9610 O   0  0  0  0  0  0  0  0  0  0  0  0
   31.1687   71.9209   17.7021 H   0  0  0  0  0  0  0  0  0  0  0  0
   30.2810   71.2714   16.2820 H   0  0  0  0  0  0  0  0  0  0  0  0
   30.8523   72.9744   16.2820 H   0  0  0  0  0  0  0  0  0  0  0  0
   31.4134   73.7823   18.2827 H   0  0  0  0  0  0  0  0  0  0  0  0
   32.3704   74.9505   21.0922 H   0  0  0  0  0  0  0  0  0  0  0  0
   32.5355   75.5372   19.3829 H   0  0  0  0  0  0  0  0  0  0  0  0
   30.7814   76.9989   21.2774 H   0  0  0  0  0  0  0  0  0  0  0  0
   33.4237   79.3309   19.1474 H   0  0  0  0  0  0  0  0  0  0  0  0
   33.7995   77.6348   18.8220 H   0  0  0  0  0  0  0  0  0  0  0  0
   31.3714   77.5980   18.6661 H   0  0  0  0  0  0  0  0  0  0  0  0
   30.5614   79.1330   20.9446 H   0  0  0  0  0  0  0  0  0  0  0  0
   31.6512   80.1059   19.8695 H   0  0  0  0  0  0  0  0  0  0  0  0
   28.3985   79.8035   20.5141 H   0  0  0  0  0  0  0  0  0  0  0  0
   26.5242   80.1452   18.8945 H   0  0  0  0  0  0  0  0  0  0  0  0
   25.4389   79.7760   17.8719 H   0  0  0  0  0  0  0  0  0  0  0  0
   24.7558   80.5661   16.4106 H   0  0  0  0  0  0  0  0  0  0  0  0
   25.0721   78.7979   16.4106 H   0  0  0  0  0  0  0  0  0  0  0  0
   30.2296   77.6310   15.7548 H   0  0  0  0  0  0  0  0  0  0  0  0
   29.2008   77.6684   14.2827 H   0  0  0  0  0  0  0  0  0  0  0  0
   30.7989   78.4887   14.2827 H   0  0  0  0  0  0  0  0  0  0  0  0
   31.1152   79.1150   17.2315 H   0  0  0  0  0  0  0  0  0  0  0  0
   29.5274   75.9334   21.5156 H   0  0  0  0  0  0  0  0  0  0  0  0
   27.3302   74.8980   20.9245 H   0  0  0  0  0  0  0  0  0  0  0  0
   26.2400   73.7460   18.5280 H   0  0  0  0  0  0  0  0  0  0  0  0
  1  2  1  0
  2  3  1  0
  3  4  1  0
  4  5  2  0
  5  6  1  0
  6  7  1  0
  7  8  1  0
  8  9  2  0
  8 10  1  0
 10 11  1  0
 11 12  1  0
 12 13  1  0
 13 14  1  0
 14 15  1  0
 15 16  2  0
 16 17  1  0
 17 18  1  0
 18 19  1  0
 17 20  2  0
 20 21  1  0
 21 22  1  0
 20 23  1  0
  5 24  1  0
 24 25  2  0
 25 26  1  0
 26 27  1  0
 26  3  2  0
 12  7  1  0
 23 14  2  0
  1 28  1  0
  1 29  1  0
  1 30  1  0
  4 31  1  0
  6 32  1  0
  6 33  1  0
  7 34  1  1
 11 35  1  0
 11 36  1  0
 12 37  1  6
 13 38  1  0
 13 39  1  0
 15 40  1  0
 16 41  1  0
 19 42  1  0
 19 43  1  0
 19 44  1  0
 22 45  1  0
 22 46  1  0
 22 47  1  0
 23 48  1  0
 24 49  1  0
 25 50  1  0
 27 51  1  0
M  END
>  <meeko>  (2) 
{"is_sidechain": [false], "free_energy": -7.079, "intermolecular_energy": -10.112, "internal_energy": -1.51}

$$$$
Arctigenin_64981_out
     RDKit          3D

 51 53  0  0  0  0  0  0  0  0999 V2000
   28.0930   72.0730   19.4340 C   0  0  0  0  0  0  0  0  0  0  0  0
   28.8330   71.7640   20.6140 O   0  0  0  0  0  0  0  0  0  0  0  0
   29.6320   72.7460   21.1180 C   0  0  0  0  0  0  0  0  0  0  0  0
   30.7100   73.2070   20.3640 C   0  0  0  0  0  0  0  0  0  0  0  0
   31.5230   74.2060   20.8790 C   0  0  0  0  0  0  0  0  0  0  0  0
   32.6890   74.7050   20.0630 C   0  0  0  0  0  0  0  0  0  0  0  0
   32.4860   74.4640   18.5740 C   0  0  1  0  0  0  0  0  0  0  0  0
   32.2030   75.7720   17.8790 C   0  0  0  0  0  0  0  0  0  0  0  0
   31.1490   76.3880   17.9310 O   0  0  0  0  0  0  0  0  0  0  0  0
   33.3130   76.1930   17.2010 O   0  0  0  0  0  0  0  0  0  0  0  0
   34.3980   75.2920   17.4420 C   0  0  0  0  0  0  0  0  0  0  0  0
   33.7520   73.9880   17.8690 C   0  0  2  0  0  0  0  0  0  0  0  0
   33.4170   73.1200   16.6540 C   0  0  0  0  0  0  0  0  0  0  0  0
   32.4320   72.0300   16.9960 C   0  0  0  0  0  0  0  0  0  0  0  0
   32.7470   71.1150   17.9880 C   0  0  0  0  0  0  0  0  0  0  0  0
   31.8360   70.1060   18.3040 C   0  0  0  0  0  0  0  0  0  0  0  0
   30.6210   70.0270   17.6250 C   0  0  0  0  0  0  0  0  0  0  0  0
   29.7400   69.0370   17.9410 O   0  0  0  0  0  0  0  0  0  0  0  0
   29.8820   68.4260   19.2230 C   0  0  0  0  0  0  0  0  0  0  0  0
   30.3160   70.9540   16.6280 C   0  0  0  0  0  0  0  0  0  0  0  0
   29.1330   70.8850   15.9580 O   0  0  0  0  0  0  0  0  0  0  0  0
   29.1450   70.2410   14.6860 C   0  0  0  0  0  0  0  0  0  0  0  0
   31.2270   71.9610   16.3110 C   0  0  0  0  0  0  0  0  0  0  0  0
   31.2830   74.7540   22.1300 C   0  0  0  0  0  0  0  0  0  0  0  0
   30.2030   74.2930   22.8830 C   0  0  0  0  0  0  0  0  0  0  0  0
   29.3780   73.2890   22.3780 C   0  0  0  0  0  0  0  0  0  0  0  0
   28.3280   72.8450   23.1240 O   0  0  0  0  0  0  0  0  0  0  0  0
   27.1113   72.4829   19.7137 H   0  0  0  0  0  0  0  0  0  0  0  0
   28.6447   72.8159   18.8393 H   0  0  0  0  0  0  0  0  0  0  0  0
   27.9525   71.1584   18.8393 H   0  0  0  0  0  0  0  0  0  0  0  0
   30.9141   72.7826   19.3699 H   0  0  0  0  0  0  0  0  0  0  0  0
   32.8070   75.7850   20.2353 H   0  0  0  0  0  0  0  0  0  0  0  0
   33.5862   74.1520   20.3780 H   0  0  0  0  0  0  0  0  0  0  0  0
   31.6776   73.7203   18.5164 H   0  0  0  0  0  0  0  0  0  0  0  0
   34.9885   75.1468   16.5253 H   0  0  0  0  0  0  0  0  0  0  0  0
   35.0869   75.6772   18.2082 H   0  0  0  0  0  0  0  0  0  0  0  0
   34.3967   73.3622   18.5036 H   0  0  0  0  0  0  0  0  0  0  0  0
   32.9834   73.7580   15.8698 H   0  0  0  0  0  0  0  0  0  0  0  0
   34.3464   72.6436   16.3086 H   0  0  0  0  0  0  0  0  0  0  0  0
   33.7065   71.1834   18.5216 H   0  0  0  0  0  0  0  0  0  0  0  0
   32.0766   69.3734   19.0885 H   0  0  0  0  0  0  0  0  0  0  0  0
   29.7076   69.1764   20.0082 H   0  0  0  0  0  0  0  0  0  0  0  0
   29.1491   67.6120   19.3244 H   0  0  0  0  0  0  0  0  0  0  0  0
   30.8988   68.0187   19.3244 H   0  0  0  0  0  0  0  0  0  0  0  0
   29.1653   69.1503   14.8274 H   0  0  0  0  0  0  0  0  0  0  0  0
   28.2415   70.5212   14.1246 H   0  0  0  0  0  0  0  0  0  0  0  0
   30.0375   70.5546   14.1246 H   0  0  0  0  0  0  0  0  0  0  0  0
   30.9926   72.6941   15.5251 H   0  0  0  0  0  0  0  0  0  0  0  0
   31.9380   75.5446   22.5248 H   0  0  0  0  0  0  0  0  0  0  0  0
   30.0022   74.7219   23.8758 H   0  0  0  0  0  0  0  0  0  0  0  0
   28.1150   73.2820   23.9860 H   0  0  0  0  0  0  0  0  0  0  0  0
  1  2  1  0
  2  3  1  0
  3  4  1  0
  4  5  2  0
  5  6  1  0
  6  7  1  0
  7  8  1  0
  8  9  2  0
  8 10  1  0
 10 11  1  0
 11 12  1  0
 12 13  1  0
 13 14  1  0
 14 15  1  0
 15 16  2  0
 16 17  1  0
 17 18  1  0
 18 19  1  0
 17 20  2  0
 20 21  1  0
 21 22  1  0
 20 23  1  0
  5 24  1  0
 24 25  2  0
 25 26  1  0
 26 27  1  0
 26  3  2  0
 12  7  1  0
 23 14  2  0
  1 28  1  0
  1 29  1  0
  1 30  1  0
  4 31  1  0
  6 32  1  0
  6 33  1  0
  7 34  1  1
 11 35  1  0
 11 36  1  0
 12 37  1  1
 13 38  1  0
 13 39  1  0
 15 40  1  0
 16 41  1  0
 19 42  1  0
 19 43  1  0
 19 44  1  0
 22 45  1  0
 22 46  1  0
 22 47  1  0
 23 48  1  0
 24 49  1  0
 25 50  1  0
 27 51  1  0
M  END
>  <meeko>  (3) 
{"is_sidechain": [false], "free_energy": -7.068, "intermolecular_energy": -9.609, "internal_energy": -1.997}

$$$$
Arctigenin_64981_out
     RDKit          3D

 51 53  0  0  0  0  0  0  0  0999 V2000
   34.3060   72.3240   14.7020 C   0  0  0  0  0  0  0  0  0  0  0  0
   33.6800   73.5490   15.0800 O   0  0  0  0  0  0  0  0  0  0  0  0
   33.4950   73.7640   16.4130 C   0  0  0  0  0  0  0  0  0  0  0  0
   32.5400   73.0170   17.1020 C   0  0  0  0  0  0  0  0  0  0  0  0
   32.3520   73.2380   18.4590 C   0  0  0  0  0  0  0  0  0  0  0  0
   31.3200   72.4300   19.2040 C   0  0  0  0  0  0  0  0  0  0  0  0
   30.2800   73.3160   19.8740 C   0  0  1  0  0  0  0  0  0  0  0  0
   28.9510   73.1590   19.1790 C   0  0  0  0  0  0  0  0  0  0  0  0
   28.6610   73.6300   18.0900 O   0  0  0  0  0  0  0  0  0  0  0  0
   28.1170   72.3800   19.9320 O   0  0  0  0  0  0  0  0  0  0  0  0
   28.8100   71.9090   21.0920 C   0  0  0  0  0  0  0  0  0  0  0  0
   29.9550   72.8810   21.2990 C   0  0  2  0  0  0  0  0  0  0  0  0
   29.5140   74.0700   22.1560 C   0  0  0  0  0  0  0  0  0  0  0  0
   30.5000   75.2090   22.0860 C   0  0  0  0  0  0  0  0  0  0  0  0
   31.8220   74.9890   22.4430 C   0  0  0  0  0  0  0  0  0  0  0  0
   32.7340   76.0430   22.3780 C   0  0  0  0  0  0  0  0  0  0  0  0
   32.3130   77.3040   21.9570 C   0  0  0  0  0  0  0  0  0  0  0  0
   33.2130   78.3250   21.8990 O   0  0  0  0  0  0  0  0  0  0  0  0
   33.9940   78.4360   20.7120 C   0  0  0  0  0  0  0  0  0  0  0  0
   30.9800   77.5120   21.6010 C   0  0  0  0  0  0  0  0  0  0  0  0
   30.5590   78.7400   21.1890 O   0  0  0  0  0  0  0  0  0  0  0  0
   29.1740   78.8790   20.8790 C   0  0  0  0  0  0  0  0  0  0  0  0
   30.0690   76.4590   21.6660 C   0  0  0  0  0  0  0  0  0  0  0  0
   33.0970   74.1880   19.1420 C   0  0  0  0  0  0  0  0  0  0  0  0
   34.0520   74.9340   18.4510 C   0  0  0  0  0  0  0  0  0  0  0  0
   34.2510   74.7230   17.0880 C   0  0  0  0  0  0  0  0  0  0  0  0
   35.1860   75.4590   16.4240 O   0  0  0  0  0  0  0  0  0  0  0  0
   34.5919   71.7645   15.6049 H   0  0  0  0  0  0  0  0  0  0  0  0
   33.6046   71.7228   14.1048 H   0  0  0  0  0  0  0  0  0  0  0  0
   35.2041   72.5402   14.1048 H   0  0  0  0  0  0  0  0  0  0  0  0
   31.9413   72.2597   16.5747 H   0  0  0  0  0  0  0  0  0  0  0  0
   30.8124   71.7605   18.4940 H   0  0  0  0  0  0  0  0  0  0  0  0
   31.8367   71.8581   19.9888 H   0  0  0  0  0  0  0  0  0  0  0  0
   30.7083   74.3286   19.8393 H   0  0  0  0  0  0  0  0  0  0  0  0
   28.1421   71.9093   21.9660 H   0  0  0  0  0  0  0  0  0  0  0  0
   29.1677   70.8767   20.9639 H   0  0  0  0  0  0  0  0  0  0  0  0
   30.8150   72.4449   21.8284 H   0  0  0  0  0  0  0  0  0  0  0  0
   28.5360   74.4236   21.7976 H   0  0  0  0  0  0  0  0  0  0  0  0
   29.4548   73.7337   23.2016 H   0  0  0  0  0  0  0  0  0  0  0  0
   32.1487   73.9923   22.7745 H   0  0  0  0  0  0  0  0  0  0  0  0
   33.7849   75.8793   22.6588 H   0  0  0  0  0  0  0  0  0  0  0  0
   35.0501   78.5861   20.9806 H   0  0  0  0  0  0  0  0  0  0  0  0
   33.8937   77.5146   20.1196 H   0  0  0  0  0  0  0  0  0  0  0  0
   33.6410   79.2930   20.1196 H   0  0  0  0  0  0  0  0  0  0  0  0
   28.5936   78.9372   21.8116 H   0  0  0  0  0  0  0  0  0  0  0  0
   29.0197   79.7971   20.2931 H   0  0  0  0  0  0  0  0  0  0  0  0
   28.8404   78.0098   20.2931 H   0  0  0  0  0  0  0  0  0  0  0  0
   29.0170   76.6178   21.3866 H   0  0  0  0  0  0  0  0  0  0  0  0
   32.9363   74.3515   20.2179 H   0  0  0  0  0  0  0  0  0  0  0  0
   34.6487   75.6898   18.9827 H   0  0  0  0  0  0  0  0  0  0  0  0
   36.0510   75.6670   16.8590 H   0  0  0  0  0  0  0  0  0  0  0  0
  1  2  1  0
  2  3  1  0
  3  4  1  0
  4  5  2  0
  5  6  1  0
  6  7  1  0
  7  8  1  0
  8  9  2  0
  8 10  1  0
 10 11  1  0
 11 12  1  0
 12 13  1  0
 13 14  1  0
 14 15  1  0
 15 16  2  0
 16 17  1  0
 17 18  1  0
 18 19  1  0
 17 20  2  0
 20 21  1  0
 21 22  1  0
 20 23  1  0
  5 24  1  0
 24 25  2  0
 25 26  1  0
 26 27  1  0
 26  3  2  0
 12  7  1  0
 23 14  2  0
  1 28  1  0
  1 29  1  0
  1 30  1  0
  4 31  1  0
  6 32  1  0
  6 33  1  0
  7 34  1  1
 11 35  1  0
 11 36  1  0
 12 37  1  1
 13 38  1  0
 13 39  1  0
 15 40  1  0
 16 41  1  0
 19 42  1  0
 19 43  1  0
 19 44  1  0
 22 45  1  0
 22 46  1  0
 22 47  1  0
 23 48  1  0
 24 49  1  0
 25 50  1  0
 27 51  1  0
M  END
>  <meeko>  (4) 
{"is_sidechain": [false], "free_energy": -6.976, "intermolecular_energy": -9.699, "internal_energy": -1.774}

$$$$
Arctigenin_64981_out
     RDKit          3D

 51 53  0  0  0  0  0  0  0  0999 V2000
   30.0460   72.4940   17.4490 C   0  0  0  0  0  0  0  0  0  0  0  0
   30.6940   71.9150   18.5810 O   0  0  0  0  0  0  0  0  0  0  0  0
   30.2630   72.3110   19.8110 C   0  0  0  0  0  0  0  0  0  0  0  0
   30.8790   73.3940   20.4380 C   0  0  0  0  0  0  0  0  0  0  0  0
   30.4400   73.7960   21.6900 C   0  0  0  0  0  0  0  0  0  0  0  0
   31.1050   74.9670   22.3680 C   0  0  0  0  0  0  0  0  0  0  0  0
   31.4130   76.0900   21.3880 C   0  0  1  0  0  0  0  0  0  0  0  0
   30.8340   77.3860   21.8980 C   0  0  0  0  0  0  0  0  0  0  0  0
   29.6500   77.6870   21.8820 O   0  0  0  0  0  0  0  0  0  0  0  0
   31.8260   78.1720   22.4150 O   0  0  0  0  0  0  0  0  0  0  0  0
   33.0720   77.4700   22.3710 C   0  0  0  0  0  0  0  0  0  0  0  0
   32.9020   76.4120   21.2990 C   0  0  2  0  0  0  0  0  0  0  0  0
   33.2670   76.9670   19.9200 C   0  0  0  0  0  0  0  0  0  0  0  0
   33.3050   75.8850   18.8710 C   0  0  0  0  0  0  0  0  0  0  0  0
   34.0150   74.7200   19.1180 C   0  0  0  0  0  0  0  0  0  0  0  0
   34.0490   73.7190   18.1470 C   0  0  0  0  0  0  0  0  0  0  0  0
   33.3730   73.8950   16.9400 C   0  0  0  0  0  0  0  0  0  0  0  0
   33.4150   72.9110   15.9990 O   0  0  0  0  0  0  0  0  0  0  0  0
   33.6580   71.5830   16.4580 C   0  0  0  0  0  0  0  0  0  0  0  0
   32.6620   75.0720   16.7030 C   0  0  0  0  0  0  0  0  0  0  0  0
   31.9990   75.2550   15.5280 O   0  0  0  0  0  0  0  0  0  0  0  0
   30.6800   75.7900   15.6050 C   0  0  0  0  0  0  0  0  0  0  0  0
   32.6280   76.0730   17.6740 C   0  0  0  0  0  0  0  0  0  0  0  0
   29.3990   73.1400   22.3310 C   0  0  0  0  0  0  0  0  0  0  0  0
   28.7830   72.0570   21.7030 C   0  0  0  0  0  0  0  0  0  0  0  0
   29.2150   71.6430   20.4440 C   0  0  0  0  0  0  0  0  0  0  0  0
   28.6070   70.5820   19.8420 O   0  0  0  0  0  0  0  0  0  0  0  0
   29.2661   73.1909   17.7897 H   0  0  0  0  0  0  0  0  0  0  0  0
   30.7847   73.0384   16.8424 H   0  0  0  0  0  0  0  0  0  0  0  0
   29.5878   71.6990   16.8424 H   0  0  0  0  0  0  0  0  0  0  0  0
   31.7060   73.9245   19.9433 H   0  0  0  0  0  0  0  0  0  0  0  0
   30.4351   75.3520   23.1510 H   0  0  0  0  0  0  0  0  0  0  0  0
   32.0561   74.6179   22.7964 H   0  0  0  0  0  0  0  0  0  0  0  0
   31.0073   75.7438   20.4259 H   0  0  0  0  0  0  0  0  0  0  0  0
   33.8908   78.1559   22.1080 H   0  0  0  0  0  0  0  0  0  0  0  0
   33.3260   77.0271   23.3454 H   0  0  0  0  0  0  0  0  0  0  0  0
   33.5486   75.5332   21.4390 H   0  0  0  0  0  0  0  0  0  0  0  0
   32.5179   77.7182   19.6292 H   0  0  0  0  0  0  0  0  0  0  0  0
   34.2704   77.4129   19.9865 H   0  0  0  0  0  0  0  0  0  0  0  0
   34.5469   74.5862   20.0715 H   0  0  0  0  0  0  0  0  0  0  0  0
   34.6091   72.7908   18.3334 H   0  0  0  0  0  0  0  0  0  0  0  0
   33.6604   71.5699   17.5579 H   0  0  0  0  0  0  0  0  0  0  0  0
   32.8671   70.9157   16.0851 H   0  0  0  0  0  0  0  0  0  0  0  0
   34.6340   71.2390   16.0851 H   0  0  0  0  0  0  0  0  0  0  0  0
   30.3926   75.9066   16.6604 H   0  0  0  0  0  0  0  0  0  0  0  0
   30.6523   76.7704   15.1070 H   0  0  0  0  0  0  0  0  0  0  0  0
   29.9772   75.1059   15.1070 H   0  0  0  0  0  0  0  0  0  0  0  0
   32.0695   77.0032   17.4926 H   0  0  0  0  0  0  0  0  0  0  0  0
   29.0625   73.4705   23.3247 H   0  0  0  0  0  0  0  0  0  0  0  0
   27.9563   71.5298   22.2015 H   0  0  0  0  0  0  0  0  0  0  0  0
   27.6260   70.5880   19.7040 H   0  0  0  0  0  0  0  0  0  0  0  0
  1  2  1  0
  2  3  1  0
  3  4  1  0
  4  5  2  0
  5  6  1  0
  6  7  1  0
  7  8  1  0
  8  9  2  0
  8 10  1  0
 10 11  1  0
 11 12  1  0
 12 13  1  0
 13 14  1  0
 14 15  1  0
 15 16  2  0
 16 17  1  0
 17 18  1  0
 18 19  1  0
 17 20  2  0
 20 21  1  0
 21 22  1  0
 20 23  1  0
  5 24  1  0
 24 25  2  0
 25 26  1  0
 26 27  1  0
 26  3  2  0
 12  7  1  0
 23 14  2  0
  1 28  1  0
  1 29  1  0
  1 30  1  0
  4 31  1  0
  6 32  1  0
  6 33  1  0
  7 34  1  6
 11 35  1  0
 11 36  1  0
 12 37  1  1
 13 38  1  0
 13 39  1  0
 15 40  1  0
 16 41  1  0
 19 42  1  0
 19 43  1  0
 19 44  1  0
 22 45  1  0
 22 46  1  0
 22 47  1  0
 23 48  1  0
 24 49  1  0
 25 50  1  0
 27 51  1  0
M  END
>  <meeko>  (5) 
{"is_sidechain": [false], "free_energy": -6.935, "intermolecular_energy": -9.345, "internal_energy": -2.07}

$$$$
Arctigenin_64981_out
     RDKit          3D

 51 53  0  0  0  0  0  0  0  0999 V2000
   30.3780   74.2860   16.9920 C   0  0  0  0  0  0  0  0  0  0  0  0
   29.2580   73.5490   17.4800 O   0  0  0  0  0  0  0  0  0  0  0  0
   29.2660   73.2120   18.8000 C   0  0  0  0  0  0  0  0  0  0  0  0
   29.9600   74.0120   19.7080 C   0  0  0  0  0  0  0  0  0  0  0  0
   29.9680   73.6670   21.0510 C   0  0  0  0  0  0  0  0  0  0  0  0
   30.7180   74.5320   22.0330 C   0  0  0  0  0  0  0  0  0  0  0  0
   31.2260   75.8140   21.3880 C   0  0  1  0  0  0  0  0  0  0  0  0
   30.8490   76.9990   22.2420 C   0  0  0  0  0  0  0  0  0  0  0  0
   29.7300   77.4790   22.3330 O   0  0  0  0  0  0  0  0  0  0  0  0
   31.9410   77.4450   22.9330 O   0  0  0  0  0  0  0  0  0  0  0  0
   33.0600   76.5900   22.6750 C   0  0  0  0  0  0  0  0  0  0  0  0
   32.7480   75.9040   21.3600 C   0  0  2  0  0  0  0  0  0  0  0  0
   33.2310   76.7450   20.1760 C   0  0  0  0  0  0  0  0  0  0  0  0
   33.5390   75.8940   18.9700 C   0  0  0  0  0  0  0  0  0  0  0  0
   33.7050   76.4980   17.7330 C   0  0  0  0  0  0  0  0  0  0  0  0
   33.9890   75.7100   16.6170 C   0  0  0  0  0  0  0  0  0  0  0  0
   34.1040   74.3280   16.7520 C   0  0  0  0  0  0  0  0  0  0  0  0
   34.3800   73.5680   15.6550 O   0  0  0  0  0  0  0  0  0  0  0  0
   33.7720   73.9590   14.4250 C   0  0  0  0  0  0  0  0  0  0  0  0
   33.9340   73.7310   18.0020 C   0  0  0  0  0  0  0  0  0  0  0  0
   34.0420   72.3810   18.1440 O   0  0  0  0  0  0  0  0  0  0  0  0
   32.8290   71.6350   18.1950 C   0  0  0  0  0  0  0  0  0  0  0  0
   33.6490   74.5190   19.1170 C   0  0  0  0  0  0  0  0  0  0  0  0
   29.3000   72.5410   21.5080 C   0  0  0  0  0  0  0  0  0  0  0  0
   28.6050   71.7420   20.5990 C   0  0  0  0  0  0  0  0  0  0  0  0
   28.5890   72.0770   19.2460 C   0  0  0  0  0  0  0  0  0  0  0  0
   27.9090   71.2870   18.3680 O   0  0  0  0  0  0  0  0  0  0  0  0
   30.9621   74.6704   17.8411 H   0  0  0  0  0  0  0  0  0  0  0  0
   31.0114   73.6276   16.3793 H   0  0  0  0  0  0  0  0  0  0  0  0
   30.0240   75.1282   16.3793 H   0  0  0  0  0  0  0  0  0  0  0  0
   30.4959   74.9081   19.3618 H   0  0  0  0  0  0  0  0  0  0  0  0
   30.0448   74.7939   22.8626 H   0  0  0  0  0  0  0  0  0  0  0  0
   31.5882   73.9634   22.3927 H   0  0  0  0  0  0  0  0  0  0  0  0
   30.7943   75.8115   20.3763 H   0  0  0  0  0  0  0  0  0  0  0  0
   33.9842   77.1806   22.5912 H   0  0  0  0  0  0  0  0  0  0  0  0
   33.2166   75.8651   23.4874 H   0  0  0  0  0  0  0  0  0  0  0  0
   33.2414   74.9278   21.2437 H   0  0  0  0  0  0  0  0  0  0  0  0
   32.4460   77.4681   19.9098 H   0  0  0  0  0  0  0  0  0  0  0  0
   34.1567   77.2573   20.4770 H   0  0  0  0  0  0  0  0  0  0  0  0
   33.6136   77.5896   17.6322 H   0  0  0  0  0  0  0  0  0  0  0  0
   34.1220   76.1796   15.6312 H   0  0  0  0  0  0  0  0  0  0  0  0
   32.8637   74.5431   14.6344 H   0  0  0  0  0  0  0  0  0  0  0  0
   34.4776   74.5731   13.8461 H   0  0  0  0  0  0  0  0  0  0  0  0
   33.5060   73.0623   13.8461 H   0  0  0  0  0  0  0  0  0  0  0  0
   32.5485   71.4625   19.2445 H   0  0  0  0  0  0  0  0  0  0  0  0
   32.0306   72.1984   17.6899 H   0  0  0  0  0  0  0  0  0  0  0  0
   32.9716   70.6683   17.6899 H   0  0  0  0  0  0  0  0  0  0  0  0
   33.5126   74.0541   20.1045 H   0  0  0  0  0  0  0  0  0  0  0  0
   29.3177   72.2801   22.5765 H   0  0  0  0  0  0  0  0  0  0  0  0
   28.0697   70.8476   20.9503 H   0  0  0  0  0  0  0  0  0  0  0  0
   28.3270   71.0300   17.5080 H   0  0  0  0  0  0  0  0  0  0  0  0
  1  2  1  0
  2  3  1  0
  3  4  1  0
  4  5  2  0
  5  6  1  0
  6  7  1  0
  7  8  1  0
  8  9  2  0
  8 10  1  0
 10 11  1  0
 11 12  1  0
 12 13  1  0
 13 14  1  0
 14 15  1  0
 15 16  2  0
 16 17  1  0
 17 18  1  0
 18 19  1  0
 17 20  2  0
 20 21  1  0
 21 22  1  0
 20 23  1  0
  5 24  1  0
 24 25  2  0
 25 26  1  0
 26 27  1  0
 26  3  2  0
 12  7  1  0
 23 14  2  0
  1 28  1  0
  1 29  1  0
  1 30  1  0
  4 31  1  0
  6 32  1  0
  6 33  1  0
  7 34  1  6
 11 35  1  0
 11 36  1  0
 12 37  1  1
 13 38  1  0
 13 39  1  0
 15 40  1  0
 16 41  1  0
 19 42  1  0
 19 43  1  0
 19 44  1  0
 22 45  1  0
 22 46  1  0
 22 47  1  0
 23 48  1  0
 24 49  1  0
 25 50  1  0
 27 51  1  0
M  END
>  <meeko>  (6) 
{"is_sidechain": [false], "free_energy": -6.925, "intermolecular_energy": -9.522, "internal_energy": -1.878}

$$$$
Arctigenin_64981_out
     RDKit          3D

 51 53  0  0  0  0  0  0  0  0999 V2000
   28.8770   73.0450   23.0350 C   0  0  0  0  0  0  0  0  0  0  0  0
   29.3060   74.0150   22.0800 O   0  0  0  0  0  0  0  0  0  0  0  0
   29.3560   73.6200   20.7770 C   0  0  0  0  0  0  0  0  0  0  0  0
   30.3880   72.7820   20.3540 C   0  0  0  0  0  0  0  0  0  0  0  0
   30.4390   72.3820   19.0260 C   0  0  0  0  0  0  0  0  0  0  0  0
   31.5530   71.4760   18.5690 C   0  0  0  0  0  0  0  0  0  0  0  0
   32.8990   72.1890   18.5630 C   0  0  1  0  0  0  0  0  0  0  0  0
   33.9110   71.3610   17.8120 C   0  0  0  0  0  0  0  0  0  0  0  0
   34.4440   70.3440   18.2290 O   0  0  0  0  0  0  0  0  0  0  0  0
   34.1300   71.8960   16.5740 O   0  0  0  0  0  0  0  0  0  0  0  0
   33.2650   73.0190   16.3730 C   0  0  0  0  0  0  0  0  0  0  0  0
   32.8820   73.4870   17.7630 C   0  0  2  0  0  0  0  0  0  0  0  0
   33.9070   74.4860   18.3060 C   0  0  0  0  0  0  0  0  0  0  0  0
   33.3240   75.3570   19.3900 C   0  0  0  0  0  0  0  0  0  0  0  0
   33.1400   74.8330   20.6600 C   0  0  0  0  0  0  0  0  0  0  0  0
   32.6000   75.6390   21.6630 C   0  0  0  0  0  0  0  0  0  0  0  0
   32.2510   76.9590   21.3830 C   0  0  0  0  0  0  0  0  0  0  0  0
   31.7230   77.7360   22.3700 O   0  0  0  0  0  0  0  0  0  0  0  0
   30.3470   77.5340   22.6890 C   0  0  0  0  0  0  0  0  0  0  0  0
   32.4400   77.4750   20.1000 C   0  0  0  0  0  0  0  0  0  0  0  0
   32.1020   78.7620   19.8160 O   0  0  0  0  0  0  0  0  0  0  0  0
   31.0470   78.9630   18.8780 C   0  0  0  0  0  0  0  0  0  0  0  0
   32.9790   76.6690   19.0980 C   0  0  0  0  0  0  0  0  0  0  0  0
   29.4820   72.8000   18.1130 C   0  0  0  0  0  0  0  0  0  0  0  0
   28.4500   73.6370   18.5380 C   0  0  0  0  0  0  0  0  0  0  0  0
   28.3880   74.0480   19.8680 C   0  0  0  0  0  0  0  0  0  0  0  0
   27.3760   74.8670   20.2710 O   0  0  0  0  0  0  0  0  0  0  0  0
   29.0475   73.4305   24.0511 H   0  0  0  0  0  0  0  0  0  0  0  0
   27.8050   72.8417   22.8950 H   0  0  0  0  0  0  0  0  0  0  0  0
   29.4478   72.1152   22.8950 H   0  0  0  0  0  0  0  0  0  0  0  0
   31.1540   72.4415   21.0662 H   0  0  0  0  0  0  0  0  0  0  0  0
   31.6108   70.6129   19.2485 H   0  0  0  0  0  0  0  0  0  0  0  0
   31.3320   71.1565   17.5399 H   0  0  0  0  0  0  0  0  0  0  0  0
   33.1320   72.3619   19.6241 H   0  0  0  0  0  0  0  0  0  0  0  0
   33.7913   73.8176   15.8296 H   0  0  0  0  0  0  0  0  0  0  0  0
   32.3819   72.7526   15.7736 H   0  0  0  0  0  0  0  0  0  0  0  0
   31.9162   74.0120   17.8019 H   0  0  0  0  0  0  0  0  0  0  0  0
   34.7619   73.9298   18.7181 H   0  0  0  0  0  0  0  0  0  0  0  0
   34.2202   75.1375   17.4769 H   0  0  0  0  0  0  0  0  0  0  0  0
   33.4173   73.7906   20.8754 H   0  0  0  0  0  0  0  0  0  0  0  0
   32.4498   75.2328   22.6742 H   0  0  0  0  0  0  0  0  0  0  0  0
   30.2228   77.5158   23.7818 H   0  0  0  0  0  0  0  0  0  0  0  0
   29.7482   78.3539   22.2656 H   0  0  0  0  0  0  0  0  0  0  0  0
   30.0092   76.5766   22.2656 H   0  0  0  0  0  0  0  0  0  0  0  0
   30.1056   79.1424   19.4179 H   0  0  0  0  0  0  0  0  0  0  0  0
   31.2789   79.8331   18.2462 H   0  0  0  0  0  0  0  0  0  0  0  0
   30.9427   78.0686   18.2462 H   0  0  0  0  0  0  0  0  0  0  0  0
   33.1295   77.0697   18.0847 H   0  0  0  0  0  0  0  0  0  0  0  0
   29.5363   72.4745   17.0637 H   0  0  0  0  0  0  0  0  0  0  0  0
   27.6847   73.9727   17.8227 H   0  0  0  0  0  0  0  0  0  0  0  0
   26.9630   74.7420   21.1620 H   0  0  0  0  0  0  0  0  0  0  0  0
  1  2  1  0
  2  3  1  0
  3  4  1  0
  4  5  2  0
  5  6  1  0
  6  7  1  0
  7  8  1  0
  8  9  2  0
  8 10  1  0
 10 11  1  0
 11 12  1  0
 12 13  1  0
 13 14  1  0
 14 15  1  0
 15 16  2  0
 16 17  1  0
 17 18  1  0
 18 19  1  0
 17 20  2  0
 20 21  1  0
 21 22  1  0
 20 23  1  0
  5 24  1  0
 24 25  2  0
 25 26  1  0
 26 27  1  0
 26  3  2  0
 12  7  1  0
 23 14  2  0
  1 28  1  0
  1 29  1  0
  1 30  1  0
  4 31  1  0
  6 32  1  0
  6 33  1  0
  7 34  1  1
 11 35  1  0
 11 36  1  0
 12 37  1  6
 13 38  1  0
 13 39  1  0
 15 40  1  0
 16 41  1  0
 19 42  1  0
 19 43  1  0
 19 44  1  0
 22 45  1  0
 22 46  1  0
 22 47  1  0
 23 48  1  0
 24 49  1  0
 25 50  1  0
 27 51  1  0
M  END
>  <meeko>  (7) 
{"is_sidechain": [false], "free_energy": -6.821, "intermolecular_energy": -9.526, "internal_energy": -1.725}

$$$$
Arctigenin_64981_out
     RDKit          3D

 51 53  0  0  0  0  0  0  0  0999 V2000
   32.0360   75.0040   22.2010 C   0  0  0  0  0  0  0  0  0  0  0  0
   30.6760   74.5970   22.3380 O   0  0  0  0  0  0  0  0  0  0  0  0
   30.2670   73.5400   21.5830 C   0  0  0  0  0  0  0  0  0  0  0  0
   30.9890   73.1930   20.4410 C   0  0  0  0  0  0  0  0  0  0  0  0
   30.5720   72.1160   19.6720 C   0  0  0  0  0  0  0  0  0  0  0  0
   31.3520   71.7410   18.4380 C   0  0  0  0  0  0  0  0  0  0  0  0
   32.5480   72.6590   18.2210 C   0  0  1  0  0  0  0  0  0  0  0  0
   33.6850   71.8790   17.6100 C   0  0  0  0  0  0  0  0  0  0  0  0
   34.3950   71.0810   18.2020 O   0  0  0  0  0  0  0  0  0  0  0  0
   33.7920   72.1690   16.2780 O   0  0  0  0  0  0  0  0  0  0  0  0
   32.7380   73.0570   15.8910 C   0  0  0  0  0  0  0  0  0  0  0  0
   32.2910   73.7350   17.1720 C   0  0  2  0  0  0  0  0  0  0  0  0
   33.1250   74.9880   17.4470 C   0  0  0  0  0  0  0  0  0  0  0  0
   32.3920   75.9690   18.3260 C   0  0  0  0  0  0  0  0  0  0  0  0
   31.0060   75.9750   18.3330 C   0  0  0  0  0  0  0  0  0  0  0  0
   30.3280   76.8840   19.1470 C   0  0  0  0  0  0  0  0  0  0  0  0
   31.0440   77.7730   19.9450 C   0  0  0  0  0  0  0  0  0  0  0  0
   30.3710   78.6570   20.7340 O   0  0  0  0  0  0  0  0  0  0  0  0
   29.9910   78.2070   22.0330 C   0  0  0  0  0  0  0  0  0  0  0  0
   32.4400   77.7580   19.9300 C   0  0  0  0  0  0  0  0  0  0  0  0
   33.1500   78.6240   20.7050 O   0  0  0  0  0  0  0  0  0  0  0  0
   34.4570   78.9720   20.2560 C   0  0  0  0  0  0  0  0  0  0  0  0
   33.1170   76.8510   19.1150 C   0  0  0  0  0  0  0  0  0  0  0  0
   29.4500   71.3780   20.0190 C   0  0  0  0  0  0  0  0  0  0  0  0
   28.7290   71.7250   21.1620 C   0  0  0  0  0  0  0  0  0  0  0  0
   29.1370   72.8050   21.9430 C   0  0  0  0  0  0  0  0  0  0  0  0
   28.4240   73.1360   23.0560 O   0  0  0  0  0  0  0  0  0  0  0  0
   32.4811   75.1372   23.1981 H   0  0  0  0  0  0  0  0  0  0  0  0
   32.5954   74.2339   21.6496 H   0  0  0  0  0  0  0  0  0  0  0  0
   32.0804   75.9548   21.6496 H   0  0  0  0  0  0  0  0  0  0  0  0
   31.8812   73.7682   20.1526 H   0  0  0  0  0  0  0  0  0  0  0  0
   31.7121   70.7072   18.5455 H   0  0  0  0  0  0  0  0  0  0  0  0
   30.6843   71.8401   17.5695 H   0  0  0  0  0  0  0  0  0  0  0  0
   32.7562   73.0903   19.2113 H   0  0  0  0  0  0  0  0  0  0  0  0
   33.1073   73.8015   15.1703 H   0  0  0  0  0  0  0  0  0  0  0  0
   31.9110   72.5214   15.4019 H   0  0  0  0  0  0  0  0  0  0  0  0
   31.2470   74.0807   17.1480 H   0  0  0  0  0  0  0  0  0  0  0  0
   34.0587   74.6911   17.9470 H   0  0  0  0  0  0  0  0  0  0  0  0
   33.3297   75.4794   16.4844 H   0  0  0  0  0  0  0  0  0  0  0  0
   30.4451   75.2695   17.7025 H   0  0  0  0  0  0  0  0  0  0  0  0
   29.2281   76.8982   19.1582 H   0  0  0  0  0  0  0  0  0  0  0  0
   30.5027   78.8130   22.7952 H   0  0  0  0  0  0  0  0  0  0  0  0
   28.9024   78.3100   22.1528 H   0  0  0  0  0  0  0  0  0  0  0  0
   30.2748   77.1510   22.1528 H   0  0  0  0  0  0  0  0  0  0  0  0
   35.1090   79.1456   21.1248 H   0  0  0  0  0  0  0  0  0  0  0  0
   34.8665   78.1516   19.6483 H   0  0  0  0  0  0  0  0  0  0  0  0
   34.4043   79.8874   19.6483 H   0  0  0  0  0  0  0  0  0  0  0  0
   34.2167   76.8349   19.0977 H   0  0  0  0  0  0  0  0  0  0  0  0
   29.1316   70.5271   19.3988 H   0  0  0  0  0  0  0  0  0  0  0  0
   27.8382   71.1460   21.4469 H   0  0  0  0  0  0  0  0  0  0  0  0
   27.4600   73.3470   22.9810 H   0  0  0  0  0  0  0  0  0  0  0  0
  1  2  1  0
  2  3  1  0
  3  4  1  0
  4  5  2  0
  5  6  1  0
  6  7  1  0
  7  8  1  0
  8  9  2  0
  8 10  1  0
 10 11  1  0
 11 12  1  0
 12 13  1  0
 13 14  1  0
 14 15  1  0
 15 16  2  0
 16 17  1  0
 17 18  1  0
 18 19  1  0
 17 20  2  0
 20 21  1  0
 21 22  1  0
 20 23  1  0
  5 24  1  0
 24 25  2  0
 25 26  1  0
 26 27  1  0
 26  3  2  0
 12  7  1  0
 23 14  2  0
  1 28  1  0
  1 29  1  0
  1 30  1  0
  4 31  1  0
  6 32  1  0
  6 33  1  0
  7 34  1  1
 11 35  1  0
 11 36  1  0
 12 37  1  6
 13 38  1  0
 13 39  1  0
 15 40  1  0
 16 41  1  0
 19 42  1  0
 19 43  1  0
 19 44  1  0
 22 45  1  0
 22 46  1  0
 22 47  1  0
 23 48  1  0
 24 49  1  0
 25 50  1  0
 27 51  1  0
M  END
>  <meeko>  (8) 
{"is_sidechain": [false], "free_energy": -6.767, "intermolecular_energy": -9.274, "internal_energy": -1.899}

$$$$
Arctigenin_64981_out
     RDKit          3D

 51 53  0  0  0  0  0  0  0  0999 V2000
   31.6050   81.4340   17.8080 C   0  0  0  0  0  0  0  0  0  0  0  0
   30.5940   80.4590   17.5610 O   0  0  0  0  0  0  0  0  0  0  0  0
   29.8770   80.0240   18.6350 C   0  0  0  0  0  0  0  0  0  0  0  0
   30.4510   79.1110   19.5190 C   0  0  0  0  0  0  0  0  0  0  0  0
   29.7190   78.6690   20.6110 C   0  0  0  0  0  0  0  0  0  0  0  0
   30.3400   77.6820   21.5670 C   0  0  0  0  0  0  0  0  0  0  0  0
   31.6710   77.1510   21.0510 C   0  0  1  0  0  0  0  0  0  0  0  0
   32.8030   77.7650   21.8350 C   0  0  0  0  0  0  0  0  0  0  0  0
   33.2070   78.9120   21.7170 O   0  0  0  0  0  0  0  0  0  0  0  0
   33.3010   76.8580   22.7290 O   0  0  0  0  0  0  0  0  0  0  0  0
   32.5290   75.6540   22.6780 C   0  0  0  0  0  0  0  0  0  0  0  0
   31.8610   75.6620   21.3170 C   0  0  2  0  0  0  0  0  0  0  0  0
   32.7650   75.0210   20.2610 C   0  0  0  0  0  0  0  0  0  0  0  0
   32.1630   73.7600   19.6950 C   0  0  0  0  0  0  0  0  0  0  0  0
   32.7970   73.1130   18.6460 C   0  0  0  0  0  0  0  0  0  0  0  0
   32.2390   71.9460   18.1220 C   0  0  0  0  0  0  0  0  0  0  0  0
   31.0550   71.4400   18.6560 C   0  0  0  0  0  0  0  0  0  0  0  0
   30.5190   70.3010   18.1350 O   0  0  0  0  0  0  0  0  0  0  0  0
   29.8710   70.4070   16.8690 C   0  0  0  0  0  0  0  0  0  0  0  0
   30.4260   72.1000   19.7120 C   0  0  0  0  0  0  0  0  0  0  0  0
   29.2680   71.6150   20.2390 O   0  0  0  0  0  0  0  0  0  0  0  0
   28.0500   72.1640   19.7430 C   0  0  0  0  0  0  0  0  0  0  0  0
   30.9830   73.2670   20.2340 C   0  0  0  0  0  0  0  0  0  0  0  0
   28.4280   79.1190   20.8410 C   0  0  0  0  0  0  0  0  0  0  0  0
   27.8550   80.0330   19.9560 C   0  0  0  0  0  0  0  0  0  0  0  0
   28.5780   80.4850   18.8540 C   0  0  0  0  0  0  0  0  0  0  0  0
   28.0070   81.3770   17.9960 O   0  0  0  0  0  0  0  0  0  0  0  0
   31.7356   81.5600   18.8929 H   0  0  0  0  0  0  0  0  0  0  0  0
   32.5531   81.1005   17.3608 H   0  0  0  0  0  0  0  0  0  0  0  0
   31.3061   82.3935   17.3608 H   0  0  0  0  0  0  0  0  0  0  0  0
   31.4747   78.7448   19.3518 H   0  0  0  0  0  0  0  0  0  0  0  0
   30.5066   78.1799   22.5336 H   0  0  0  0  0  0  0  0  0  0  0  0
   29.6515   76.8306   21.6726 H   0  0  0  0  0  0  0  0  0  0  0  0
   31.6694   77.3809   19.9753 H   0  0  0  0  0  0  0  0  0  0  0  0
   33.1809   74.7741   22.7817 H   0  0  0  0  0  0  0  0  0  0  0  0
   31.7936   75.6044   23.4946 H   0  0  0  0  0  0  0  0  0  0  0  0
   30.9223   75.0896   21.2825 H   0  0  0  0  0  0  0  0  0  0  0  0
   32.9201   75.7393   19.4425 H   0  0  0  0  0  0  0  0  0  0  0  0
   33.7177   74.7569   20.7433 H   0  0  0  0  0  0  0  0  0  0  0  0
   33.7322   73.5159   18.2299 H   0  0  0  0  0  0  0  0  0  0  0  0
   32.7332   71.4259   17.2882 H   0  0  0  0  0  0  0  0  0  0  0  0
   28.7958   70.5829   17.0210 H   0  0  0  0  0  0  0  0  0  0  0  0
   30.3037   71.2463   16.3048 H   0  0  0  0  0  0  0  0  0  0  0  0
   30.0137   69.4736   16.3048 H   0  0  0  0  0  0  0  0  0  0  0  0
   27.4076   72.4536   20.5876 H   0  0  0  0  0  0  0  0  0  0  0  0
   28.2702   73.0499   19.1293 H   0  0  0  0  0  0  0  0  0  0  0  0
   27.5321   71.4123   19.1293 H   0  0  0  0  0  0  0  0  0  0  0  0
   30.4912   73.7923   21.0660 H   0  0  0  0  0  0  0  0  0  0  0  0
   27.8612   78.7592   21.7123 H   0  0  0  0  0  0  0  0  0  0  0  0
   26.8314   80.3971   20.1285 H   0  0  0  0  0  0  0  0  0  0  0  0
   27.5160   82.1600   18.3520 H   0  0  0  0  0  0  0  0  0  0  0  0
  1  2  1  0
  2  3  1  0
  3  4  1  0
  4  5  2  0
  5  6  1  0
  6  7  1  0
  7  8  1  0
  8  9  2  0
  8 10  1  0
 10 11  1  0
 11 12  1  0
 12 13  1  0
 13 14  1  0
 14 15  1  0
 15 16  2  0
 16 17  1  0
 17 18  1  0
 18 19  1  0
 17 20  2  0
 20 21  1  0
 21 22  1  0
 20 23  1  0
  5 24  1  0
 24 25  2  0
 25 26  1  0
 26 27  1  0
 26  3  2  0
 12  7  1  0
 23 14  2  0
  1 28  1  0
  1 29  1  0
  1 30  1  0
  4 31  1  0
  6 32  1  0
  6 33  1  0
  7 34  1  6
 11 35  1  0
 11 36  1  0
 12 37  1  1
 13 38  1  0
 13 39  1  0
 15 40  1  0
 16 41  1  0
 19 42  1  0
 19 43  1  0
 19 44  1  0
 22 45  1  0
 22 46  1  0
 22 47  1  0
 23 48  1  0
 24 49  1  0
 25 50  1  0
 27 51  1  0
M  END
>  <meeko>  (9) 
{"is_sidechain": [false], "free_energy": -6.74, "intermolecular_energy": -9.995, "internal_energy": -1.139}

$$$$
