Bavachinin_10337211_out
     RDKit          3D

 47 49  0  0  0  0  0  0  0  0999 V2000
   33.5100   76.1590   18.7930 C   0  0  0  0  0  0  0  0  0  0  0  0
   33.5610   75.1250   19.7720 O   0  0  0  0  0  0  0  0  0  0  0  0
   32.5320   74.2320   19.7830 C   0  0  0  0  0  0  0  0  0  0  0  0
   32.3380   73.4030   18.6770 C   0  0  0  0  0  0  0  0  0  0  0  0
   31.2960   72.4760   18.6760 C   0  0  0  0  0  0  0  0  0  0  0  0
   30.4300   72.4020   19.7710 C   0  0  0  0  0  0  0  0  0  0  0  0
   30.6230   73.2290   20.8810 C   0  0  0  0  0  0  0  0  0  0  0  0
   31.6800   74.1410   20.8840 C   0  0  0  0  0  0  0  0  0  0  0  0
   31.8770   75.0210   22.0750 C   0  0  0  0  0  0  0  0  0  0  0  0
   31.0730   76.2950   22.0000 C   0  0  0  0  0  0  0  0  0  0  0  0
   31.5250   77.5640   22.0250 C   0  0  0  0  0  0  0  0  0  0  0  0
   30.6640   78.7920   21.9460 C   0  0  0  0  0  0  0  0  0  0  0  0
   32.9980   77.8460   22.1460 C   0  0  0  0  0  0  0  0  0  0  0  0
   29.2830   71.4720   19.7190 C   0  0  0  0  0  0  0  0  0  0  0  0
   28.4910   71.3820   20.6510 O   0  0  0  0  0  0  0  0  0  0  0  0
   29.1120   70.7080   18.4330 C   0  0  0  0  0  0  0  0  0  0  0  0
   30.4860   70.4560   17.8150 C   0  0  1  0  0  0  0  0  0  0  0  0
   30.3670   69.6940   16.5120 C   0  0  0  0  0  0  0  0  0  0  0  0
   29.9800   68.3550   16.5210 C   0  0  0  0  0  0  0  0  0  0  0  0
   29.8710   67.6530   15.3210 C   0  0  0  0  0  0  0  0  0  0  0  0
   30.1480   68.2910   14.1120 C   0  0  0  0  0  0  0  0  0  0  0  0
   30.0410   67.6050   12.9410 O   0  0  0  0  0  0  0  0  0  0  0  0
   30.5350   69.6310   14.1040 C   0  0  0  0  0  0  0  0  0  0  0  0
   30.6440   70.3330   15.3030 C   0  0  0  0  0  0  0  0  0  0  0  0
   31.1690   71.6930   17.5580 O   0  0  0  0  0  0  0  0  0  0  0  0
   33.4618   77.1368   19.2946 H   0  0  0  0  0  0  0  0  0  0  0  0
   34.4115   76.1135   18.1643 H   0  0  0  0  0  0  0  0  0  0  0  0
   32.6174   76.0250   18.1643 H   0  0  0  0  0  0  0  0  0  0  0  0
   33.0064   73.4807   17.8068 H   0  0  0  0  0  0  0  0  0  0  0  0
   29.9469   73.1618   21.7461 H   0  0  0  0  0  0  0  0  0  0  0  0
   31.5739   74.4667   22.9755 H   0  0  0  0  0  0  0  0  0  0  0  0
   32.9401   75.3018   22.1070 H   0  0  0  0  0  0  0  0  0  0  0  0
   29.9832   76.1730   21.9143 H   0  0  0  0  0  0  0  0  0  0  0  0
   30.4225   79.1365   22.9624 H   0  0  0  0  0  0  0  0  0  0  0  0
   31.2048   79.5851   21.4089 H   0  0  0  0  0  0  0  0  0  0  0  0
   29.7341   78.5539   21.4089 H   0  0  0  0  0  0  0  0  0  0  0  0
   33.2750   77.8990   23.2092 H   0  0  0  0  0  0  0  0  0  0  0  0
   33.5668   77.0404   21.6586 H   0  0  0  0  0  0  0  0  0  0  0  0
   33.2290   78.8047   21.6586 H   0  0  0  0  0  0  0  0  0  0  0  0
   28.6186   69.7466   18.6385 H   0  0  0  0  0  0  0  0  0  0  0  0
   28.4930   71.2909   17.7351 H   0  0  0  0  0  0  0  0  0  0  0  0
   31.0595   69.8592   18.5395 H   0  0  0  0  0  0  0  0  0  0  0  0
   29.7606   67.8521   17.4744 H   0  0  0  0  0  0  0  0  0  0  0  0
   29.5665   66.5960   15.3279 H   0  0  0  0  0  0  0  0  0  0  0  0
   30.3240   66.6580   12.8950 H   0  0  0  0  0  0  0  0  0  0  0  0
   30.7543   70.1341   13.1507 H   0  0  0  0  0  0  0  0  0  0  0  0
   30.9482   71.3901   15.2962 H   0  0  0  0  0  0  0  0  0  0  0  0
  1  2  1  0
  2  3  1  0
  3  4  1  0
  4  5  2  0
  5  6  1  0
  6  7  2  0
  7  8  1  0
  8  9  1  0
  9 10  1  0
 10 11  2  3
 11 12  1  0
 11 13  1  0
  6 14  1  0
 14 15  2  0
 14 16  1  0
 16 17  1  0
 17 18  1  0
 18 19  1  0
 19 20  2  0
 20 21  1  0
 21 22  1  0
 21 23  2  0
 23 24  1  0
 17 25  1  0
  8  3  2  0
 24 18  2  0
 25  5  1  0
  1 26  1  0
  1 27  1  0
  1 28  1  0
  4 29  1  0
  7 30  1  0
  9 31  1  0
  9 32  1  0
 10 33  1  0
 12 34  1  0
 12 35  1  0
 12 36  1  0
 13 37  1  0
 13 38  1  0
 13 39  1  0
 16 40  1  0
 16 41  1  0
 17 42  1  1
 19 43  1  0
 20 44  1  0
 22 45  1  0
 23 46  1  0
 24 47  1  0
M  END
>  <meeko>  (1) 
{"is_sidechain": [false], "free_energy": -8.176, "intermolecular_energy": -10.327, "internal_energy": -0.905}

$$$$
Bavachinin_10337211_out
     RDKit          3D

 47 49  0  0  0  0  0  0  0  0999 V2000
   28.8820   72.9310   22.9900 C   0  0  0  0  0  0  0  0  0  0  0  0
   29.4610   74.1190   22.4540 O   0  0  0  0  0  0  0  0  0  0  0  0
   30.4160   73.9630   21.4950 C   0  0  0  0  0  0  0  0  0  0  0  0
   30.1900   73.0710   20.4470 C   0  0  0  0  0  0  0  0  0  0  0  0
   31.1520   72.9090   19.4510 C   0  0  0  0  0  0  0  0  0  0  0  0
   32.3540   73.6170   19.5230 C   0  0  0  0  0  0  0  0  0  0  0  0
   32.5830   74.5140   20.5700 C   0  0  0  0  0  0  0  0  0  0  0  0
   31.6080   74.6880   21.5530 C   0  0  0  0  0  0  0  0  0  0  0  0
   31.8620   75.6470   22.6700 C   0  0  0  0  0  0  0  0  0  0  0  0
   32.6540   76.8550   22.2340 C   0  0  0  0  0  0  0  0  0  0  0  0
   32.1910   78.0800   21.9180 C   0  0  0  0  0  0  0  0  0  0  0  0
   33.0400   79.2430   21.4910 C   0  0  0  0  0  0  0  0  0  0  0  0
   30.7160   78.3740   21.9690 C   0  0  0  0  0  0  0  0  0  0  0  0
   33.3970   73.3730   18.5050 C   0  0  0  0  0  0  0  0  0  0  0  0
   34.4710   73.9630   18.5350 O   0  0  0  0  0  0  0  0  0  0  0  0
   33.0850   72.3100   17.4850 C   0  0  0  0  0  0  0  0  0  0  0  0
   31.5780   72.2850   17.2360 C   0  0  1  0  0  0  0  0  0  0  0  0
   31.2100   71.2240   16.2190 C   0  0  0  0  0  0  0  0  0  0  0  0
   29.9050   71.1440   15.7370 C   0  0  0  0  0  0  0  0  0  0  0  0
   29.5660   70.1670   14.8010 C   0  0  0  0  0  0  0  0  0  0  0  0
   30.5340   69.2710   14.3470 C   0  0  0  0  0  0  0  0  0  0  0  0
   30.2030   68.3170   13.4340 O   0  0  0  0  0  0  0  0  0  0  0  0
   31.8400   69.3520   14.8290 C   0  0  0  0  0  0  0  0  0  0  0  0
   32.1790   70.3280   15.7650 C   0  0  0  0  0  0  0  0  0  0  0  0
   30.8590   72.0180   18.4500 O   0  0  0  0  0  0  0  0  0  0  0  0
   28.9039   72.9759   24.0889 H   0  0  0  0  0  0  0  0  0  0  0  0
   27.8404   72.8439   22.6473 H   0  0  0  0  0  0  0  0  0  0  0  0
   29.4551   72.0569   22.6473 H   0  0  0  0  0  0  0  0  0  0  0  0
   29.2533   72.4957   20.4063 H   0  0  0  0  0  0  0  0  0  0  0  0
   33.5255   75.0791   20.6188 H   0  0  0  0  0  0  0  0  0  0  0  0
   30.8946   75.9861   23.0690 H   0  0  0  0  0  0  0  0  0  0  0  0
   32.4548   75.1192   23.4316 H   0  0  0  0  0  0  0  0  0  0  0  0
   33.7434   76.7187   22.1658 H   0  0  0  0  0  0  0  0  0  0  0  0
   33.4211   79.7651   22.3810 H   0  0  0  0  0  0  0  0  0  0  0  0
   33.8858   78.8783   20.8896 H   0  0  0  0  0  0  0  0  0  0  0  0
   32.4349   79.9374   20.8896 H   0  0  0  0  0  0  0  0  0  0  0  0
   30.3911   78.4388   23.0179 H   0  0  0  0  0  0  0  0  0  0  0  0
   30.5149   79.3299   21.4632 H   0  0  0  0  0  0  0  0  0  0  0  0
   30.1638   77.5683   21.4632 H   0  0  0  0  0  0  0  0  0  0  0  0
   33.6102   72.5355   16.5452 H   0  0  0  0  0  0  0  0  0  0  0  0
   33.4159   71.3294   17.8578 H   0  0  0  0  0  0  0  0  0  0  0  0
   31.3008   73.2776   16.8513 H   0  0  0  0  0  0  0  0  0  0  0  0
   29.1422   71.8513   16.0946 H   0  0  0  0  0  0  0  0  0  0  0  0
   28.5357   70.1031   14.4210 H   0  0  0  0  0  0  0  0  0  0  0  0
   29.5660   67.5990   13.6770 H   0  0  0  0  0  0  0  0  0  0  0  0
   32.6031   68.6455   14.4705 H   0  0  0  0  0  0  0  0  0  0  0  0
   33.2092   70.3918   16.1453 H   0  0  0  0  0  0  0  0  0  0  0  0
  1  2  1  0
  2  3  1  0
  3  4  1  0
  4  5  2  0
  5  6  1  0
  6  7  2  0
  7  8  1  0
  8  9  1  0
  9 10  1  0
 10 11  2  3
 11 12  1  0
 11 13  1  0
  6 14  1  0
 14 15  2  0
 14 16  1  0
 16 17  1  0
 17 18  1  0
 18 19  1  0
 19 20  2  0
 20 21  1  0
 21 22  1  0
 21 23  2  0
 23 24  1  0
 17 25  1  0
  8  3  2  0
 24 18  2  0
 25  5  1  0
  1 26  1  0
  1 27  1  0
  1 28  1  0
  4 29  1  0
  7 30  1  0
  9 31  1  0
  9 32  1  0
 10 33  1  0
 12 34  1  0
 12 35  1  0
 12 36  1  0
 13 37  1  0
 13 38  1  0
 13 39  1  0
 16 40  1  0
 16 41  1  0
 17 42  1  6
 19 43  1  0
 20 44  1  0
 22 45  1  0
 23 46  1  0
 24 47  1  0
M  END
>  <meeko>  (2) 
{"is_sidechain": [false], "free_energy": -7.761, "intermolecular_energy": -9.857, "internal_energy": -0.851}

$$$$
Bavachinin_10337211_out
     RDKit          3D

 47 49  0  0  0  0  0  0  0  0999 V2000
   31.5360   71.1910   15.9770 C   0  0  0  0  0  0  0  0  0  0  0  0
   31.5790   70.4650   17.2020 O   0  0  0  0  0  0  0  0  0  0  0  0
   31.0970   71.0930   18.3110 C   0  0  0  0  0  0  0  0  0  0  0  0
   31.6180   72.3370   18.6700 C   0  0  0  0  0  0  0  0  0  0  0  0
   31.1280   72.9990   19.7950 C   0  0  0  0  0  0  0  0  0  0  0  0
   30.1380   72.4000   20.5780 C   0  0  0  0  0  0  0  0  0  0  0  0
   29.6120   71.1550   20.2200 C   0  0  0  0  0  0  0  0  0  0  0  0
   30.0920   70.5070   19.0820 C   0  0  0  0  0  0  0  0  0  0  0  0
   29.5250   69.1760   18.7080 C   0  0  0  0  0  0  0  0  0  0  0  0
   30.2930   68.0240   19.3070 C   0  0  0  0  0  0  0  0  0  0  0  0
   30.0220   67.3460   20.4390 C   0  0  0  0  0  0  0  0  0  0  0  0
   30.8330   66.2030   20.9800 C   0  0  0  0  0  0  0  0  0  0  0  0
   28.8310   67.7150   21.2820 C   0  0  0  0  0  0  0  0  0  0  0  0
   29.6880   73.0770   21.8120 C   0  0  0  0  0  0  0  0  0  0  0  0
   28.8300   72.5830   22.5350 O   0  0  0  0  0  0  0  0  0  0  0  0
   30.3970   74.3610   22.1550 C   0  0  0  0  0  0  0  0  0  0  0  0
   30.8180   75.0580   20.8630 C   0  0  1  0  0  0  0  0  0  0  0  0
   31.5440   76.3550   21.1550 C   0  0  0  0  0  0  0  0  0  0  0  0
   31.1770   77.5240   20.4900 C   0  0  0  0  0  0  0  0  0  0  0  0
   31.8450   78.7180   20.7590 C   0  0  0  0  0  0  0  0  0  0  0  0
   32.8810   78.7420   21.6940 C   0  0  0  0  0  0  0  0  0  0  0  0
   33.5340   79.9080   21.9550 O   0  0  0  0  0  0  0  0  0  0  0  0
   33.2480   77.5730   22.3580 C   0  0  0  0  0  0  0  0  0  0  0  0
   32.5800   76.3780   22.0900 C   0  0  0  0  0  0  0  0  0  0  0  0
   31.6840   74.2190   20.0830 O   0  0  0  0  0  0  0  0  0  0  0  0
   31.4722   72.2681   16.1912 H   0  0  0  0  0  0  0  0  0  0  0  0
   32.4479   70.9859   15.3970 H   0  0  0  0  0  0  0  0  0  0  0  0
   30.6547   70.8797   15.3970 H   0  0  0  0  0  0  0  0  0  0  0  0
   32.4149   72.7950   18.0656 H   0  0  0  0  0  0  0  0  0  0  0  0
   28.8250   70.6897   20.8317 H   0  0  0  0  0  0  0  0  0  0  0  0
   28.4843   69.1257   19.0606 H   0  0  0  0  0  0  0  0  0  0  0  0
   29.5901   69.0840   17.6138 H   0  0  0  0  0  0  0  0  0  0  0  0
   31.1841   67.6974   18.7509 H   0  0  0  0  0  0  0  0  0  0  0  0
   30.8148   66.2286   22.0796 H   0  0  0  0  0  0  0  0  0  0  0  0
   30.4065   65.2520   20.6283 H   0  0  0  0  0  0  0  0  0  0  0  0
   31.8715   66.2915   20.6283 H   0  0  0  0  0  0  0  0  0  0  0  0
   29.0957   67.6330   22.3465 H   0  0  0  0  0  0  0  0  0  0  0  0
   28.5292   68.7488   21.0578 H   0  0  0  0  0  0  0  0  0  0  0  0
   27.9976   67.0329   21.0578 H   0  0  0  0  0  0  0  0  0  0  0  0
   29.7198   75.0156   22.7232 H   0  0  0  0  0  0  0  0  0  0  0  0
   31.2855   74.1428   22.7657 H   0  0  0  0  0  0  0  0  0  0  0  0
   29.8981   75.2683   20.2978 H   0  0  0  0  0  0  0  0  0  0  0  0
   30.3605   77.5045   19.7531 H   0  0  0  0  0  0  0  0  0  0  0  0
   31.5556   79.6406   20.2346 H   0  0  0  0  0  0  0  0  0  0  0  0
   34.4900   80.0040   21.7180 H   0  0  0  0  0  0  0  0  0  0  0  0
   34.0652   77.5926   23.0941 H   0  0  0  0  0  0  0  0  0  0  0  0
   32.8693   75.4555   22.6146 H   0  0  0  0  0  0  0  0  0  0  0  0
  1  2  1  0
  2  3  1  0
  3  4  1  0
  4  5  2  0
  5  6  1  0
  6  7  2  0
  7  8  1  0
  8  9  1  0
  9 10  1  0
 10 11  2  3
 11 12  1  0
 11 13  1  0
  6 14  1  0
 14 15  2  0
 14 16  1  0
 16 17  1  0
 17 18  1  0
 18 19  1  0
 19 20  2  0
 20 21  1  0
 21 22  1  0
 21 23  2  0
 23 24  1  0
 17 25  1  0
  8  3  2  0
 24 18  2  0
 25  5  1  0
  1 26  1  0
  1 27  1  0
  1 28  1  0
  4 29  1  0
  7 30  1  0
  9 31  1  0
  9 32  1  0
 10 33  1  0
 12 34  1  0
 12 35  1  0
 12 36  1  0
 13 37  1  0
 13 38  1  0
 13 39  1  0
 16 40  1  0
 16 41  1  0
 17 42  1  6
 19 43  1  0
 20 44  1  0
 22 45  1  0
 23 46  1  0
 24 47  1  0
M  END
>  <meeko>  (3) 
{"is_sidechain": [false], "free_energy": -7.638, "intermolecular_energy": -9.69, "internal_energy": -0.863}

$$$$
Bavachinin_10337211_out
     RDKit          3D

 47 49  0  0  0  0  0  0  0  0999 V2000
   32.7080   70.8330   15.4590 C   0  0  0  0  0  0  0  0  0  0  0  0
   32.5570   70.0850   16.6630 O   0  0  0  0  0  0  0  0  0  0  0  0
   31.8570   70.6740   17.6730 C   0  0  0  0  0  0  0  0  0  0  0  0
   32.2900   71.9020   18.1760 C   0  0  0  0  0  0  0  0  0  0  0  0
   31.5780   72.5230   19.2020 C   0  0  0  0  0  0  0  0  0  0  0  0
   30.4510   71.9000   19.7430 C   0  0  0  0  0  0  0  0  0  0  0  0
   30.0130   70.6710   19.2400 C   0  0  0  0  0  0  0  0  0  0  0  0
   30.7180   70.0630   18.2000 C   0  0  0  0  0  0  0  0  0  0  0  0
   30.2440   68.7500   17.6700 C   0  0  0  0  0  0  0  0  0  0  0  0
   29.7080   68.8470   16.2620 C   0  0  0  0  0  0  0  0  0  0  0  0
   30.0620   68.1160   15.1880 C   0  0  0  0  0  0  0  0  0  0  0  0
   29.4850   68.2660   13.8090 C   0  0  0  0  0  0  0  0  0  0  0  0
   31.1210   67.0520   15.3050 C   0  0  0  0  0  0  0  0  0  0  0  0
   29.7560   72.5320   20.8840 C   0  0  0  0  0  0  0  0  0  0  0  0
   28.7710   72.0150   21.3990 O   0  0  0  0  0  0  0  0  0  0  0  0
   30.3760   73.7990   21.4120 C   0  0  0  0  0  0  0  0  0  0  0  0
   31.0490   74.5430   20.2600 C   0  0  1  0  0  0  0  0  0  0  0  0
   31.6960   75.8240   20.7420 C   0  0  0  0  0  0  0  0  0  0  0  0
   31.2490   76.4310   21.9150 C   0  0  0  0  0  0  0  0  0  0  0  0
   31.8440   77.6120   22.3600 C   0  0  0  0  0  0  0  0  0  0  0  0
   32.8870   78.1850   21.6310 C   0  0  0  0  0  0  0  0  0  0  0  0
   33.4670   79.3370   22.0650 O   0  0  0  0  0  0  0  0  0  0  0  0
   33.3330   77.5770   20.4580 C   0  0  0  0  0  0  0  0  0  0  0  0
   32.7380   76.3970   20.0130 C   0  0  0  0  0  0  0  0  0  0  0  0
   32.0590   73.7290   19.6420 O   0  0  0  0  0  0  0  0  0  0  0  0
   32.9202   71.8841   15.7045 H   0  0  0  0  0  0  0  0  0  0  0  0
   33.5406   70.4184   14.8717 H   0  0  0  0  0  0  0  0  0  0  0  0
   31.7798   70.7738   14.8717 H   0  0  0  0  0  0  0  0  0  0  0  0
   33.1913   72.3792   17.7638 H   0  0  0  0  0  0  0  0  0  0  0  0
   29.1194   70.1869   19.6608 H   0  0  0  0  0  0  0  0  0  0  0  0
   31.0867   68.0430   17.6774 H   0  0  0  0  0  0  0  0  0  0  0  0
   29.4206   68.4099   18.3153 H   0  0  0  0  0  0  0  0  0  0  0  0
   28.9327   69.6087   16.0926 H   0  0  0  0  0  0  0  0  0  0  0  0
   28.4229   68.5421   13.8840 H   0  0  0  0  0  0  0  0  0  0  0  0
   30.0308   69.0521   13.2667 H   0  0  0  0  0  0  0  0  0  0  0  0
   29.5789   67.3136   13.2667 H   0  0  0  0  0  0  0  0  0  0  0  0
   31.3220   66.8500   16.3674 H   0  0  0  0  0  0  0  0  0  0  0  0
   30.7707   66.1308   14.8165 H   0  0  0  0  0  0  0  0  0  0  0  0
   32.0439   67.3979   14.8165 H   0  0  0  0  0  0  0  0  0  0  0  0
   29.5951   74.4346   21.8549 H   0  0  0  0  0  0  0  0  0  0  0  0
   31.1226   73.5538   22.1817 H   0  0  0  0  0  0  0  0  0  0  0  0
   30.2629   74.7794   19.5278 H   0  0  0  0  0  0  0  0  0  0  0  0
   30.4272   75.9788   22.4896 H   0  0  0  0  0  0  0  0  0  0  0  0
   31.4911   78.0912   23.2851 H   0  0  0  0  0  0  0  0  0  0  0  0
   34.3530   79.6070   21.7160 H   0  0  0  0  0  0  0  0  0  0  0  0
   34.1550   78.0287   19.8832 H   0  0  0  0  0  0  0  0  0  0  0  0
   33.0902   75.9182   19.0874 H   0  0  0  0  0  0  0  0  0  0  0  0
  1  2  1  0
  2  3  1  0
  3  4  1  0
  4  5  2  0
  5  6  1  0
  6  7  2  0
  7  8  1  0
  8  9  1  0
  9 10  1  0
 10 11  2  3
 11 12  1  0
 11 13  1  0
  6 14  1  0
 14 15  2  0
 14 16  1  0
 16 17  1  0
 17 18  1  0
 18 19  1  0
 19 20  2  0
 20 21  1  0
 21 22  1  0
 21 23  2  0
 23 24  1  0
 17 25  1  0
  8  3  2  0
 24 18  2  0
 25  5  1  0
  1 26  1  0
  1 27  1  0
  1 28  1  0
  4 29  1  0
  7 30  1  0
  9 31  1  0
  9 32  1  0
 10 33  1  0
 12 34  1  0
 12 35  1  0
 12 36  1  0
 13 37  1  0
 13 38  1  0
 13 39  1  0
 16 40  1  0
 16 41  1  0
 17 42  1  6
 19 43  1  0
 20 44  1  0
 22 45  1  0
 23 46  1  0
 24 47  1  0
M  END
>  <meeko>  (4) 
{"is_sidechain": [false], "free_energy": -7.224, "intermolecular_energy": -9.337, "internal_energy": -0.693}

$$$$
Bavachinin_10337211_out
     RDKit          3D

 47 49  0  0  0  0  0  0  0  0999 V2000
   33.9600   71.3690   15.2300 C   0  0  0  0  0  0  0  0  0  0  0  0
   34.0040   70.8210   16.5450 O   0  0  0  0  0  0  0  0  0  0  0  0
   33.1540   71.3550   17.4660 C   0  0  0  0  0  0  0  0  0  0  0  0
   33.4450   72.6030   18.0190 C   0  0  0  0  0  0  0  0  0  0  0  0
   32.5790   73.1690   18.9540 C   0  0  0  0  0  0  0  0  0  0  0  0
   31.4390   72.4700   19.3580 C   0  0  0  0  0  0  0  0  0  0  0  0
   31.1430   71.2220   18.8050 C   0  0  0  0  0  0  0  0  0  0  0  0
   32.0020   70.6690   17.8550 C   0  0  0  0  0  0  0  0  0  0  0  0
   31.6780   69.3330   17.2690 C   0  0  0  0  0  0  0  0  0  0  0  0
   31.3410   68.3010   18.3180 C   0  0  0  0  0  0  0  0  0  0  0  0
   32.1890   67.5930   19.0870 C   0  0  0  0  0  0  0  0  0  0  0  0
   31.7830   66.5770   20.1160 C   0  0  0  0  0  0  0  0  0  0  0  0
   33.6770   67.7790   18.9520 C   0  0  0  0  0  0  0  0  0  0  0  0
   30.5760   73.0470   20.4100 C   0  0  0  0  0  0  0  0  0  0  0  0
   29.5720   72.4650   20.8040 O   0  0  0  0  0  0  0  0  0  0  0  0
   31.0470   74.3460   21.0100 C   0  0  0  0  0  0  0  0  0  0  0  0
   31.8030   75.1410   19.9460 C   0  0  1  0  0  0  0  0  0  0  0  0
   32.3050   76.4570   20.5040 C   0  0  0  0  0  0  0  0  0  0  0  0
   33.1980   77.2300   19.7640 C   0  0  0  0  0  0  0  0  0  0  0  0
   33.6610   78.4420   20.2770 C   0  0  0  0  0  0  0  0  0  0  0  0
   33.2300   78.8790   21.5300 C   0  0  0  0  0  0  0  0  0  0  0  0
   33.6830   80.0620   22.0300 O   0  0  0  0  0  0  0  0  0  0  0  0
   32.3370   78.1050   22.2690 C   0  0  0  0  0  0  0  0  0  0  0  0
   31.8740   76.8930   21.7570 C   0  0  0  0  0  0  0  0  0  0  0  0
   32.9280   74.3990   19.4510 O   0  0  0  0  0  0  0  0  0  0  0  0
   33.8721   72.4637   15.2917 H   0  0  0  0  0  0  0  0  0  0  0  0
   34.8822   71.1050   14.6917 H   0  0  0  0  0  0  0  0  0  0  0  0
   33.0917   70.9612   14.6917 H   0  0  0  0  0  0  0  0  0  0  0  0
   34.3567   73.1396   17.7175 H   0  0  0  0  0  0  0  0  0  0  0  0
   30.2386   70.6788   19.1165 H   0  0  0  0  0  0  0  0  0  0  0  0
   30.8155   69.4443   16.5955 H   0  0  0  0  0  0  0  0  0  0  0  0
   32.5714   68.9809   16.7325 H   0  0  0  0  0  0  0  0  0  0  0  0
   30.2701   68.1032   18.4731 H   0  0  0  0  0  0  0  0  0  0  0  0
   31.9475   66.9888   21.1227 H   0  0  0  0  0  0  0  0  0  0  0  0
   30.7180   66.3324   19.9895 H   0  0  0  0  0  0  0  0  0  0  0  0
   32.3861   65.6658   19.9895 H   0  0  0  0  0  0  0  0  0  0  0  0
   34.1316   67.8358   19.9520 H   0  0  0  0  0  0  0  0  0  0  0  0
   34.1046   66.9273   18.4027 H   0  0  0  0  0  0  0  0  0  0  0  0
   33.8818   68.7097   18.4027 H   0  0  0  0  0  0  0  0  0  0  0  0
   30.1803   74.9271   21.3579 H   0  0  0  0  0  0  0  0  0  0  0  0
   31.7111   74.1420   21.8629 H   0  0  0  0  0  0  0  0  0  0  0  0
   31.0959   75.3329   19.1255 H   0  0  0  0  0  0  0  0  0  0  0  0
   33.5375   76.8848   18.7763 H   0  0  0  0  0  0  0  0  0  0  0  0
   34.3657   79.0529   19.6937 H   0  0  0  0  0  0  0  0  0  0  0  0
   33.5710   80.8950   21.5070 H   0  0  0  0  0  0  0  0  0  0  0  0
   31.9972   78.4502   23.2566 H   0  0  0  0  0  0  0  0  0  0  0  0
   31.1699   76.2817   22.3406 H   0  0  0  0  0  0  0  0  0  0  0  0
  1  2  1  0
  2  3  1  0
  3  4  1  0
  4  5  2  0
  5  6  1  0
  6  7  2  0
  7  8  1  0
  8  9  1  0
  9 10  1  0
 10 11  2  3
 11 12  1  0
 11 13  1  0
  6 14  1  0
 14 15  2  0
 14 16  1  0
 16 17  1  0
 17 18  1  0
 18 19  1  0
 19 20  2  0
 20 21  1  0
 21 22  1  0
 21 23  2  0
 23 24  1  0
 17 25  1  0
  8  3  2  0
 24 18  2  0
 25  5  1  0
  1 26  1  0
  1 27  1  0
  1 28  1  0
  4 29  1  0
  7 30  1  0
  9 31  1  0
  9 32  1  0
 10 33  1  0
 12 34  1  0
 12 35  1  0
 12 36  1  0
 13 37  1  0
 13 38  1  0
 13 39  1  0
 16 40  1  0
 16 41  1  0
 17 42  1  6
 19 43  1  0
 20 44  1  0
 22 45  1  0
 23 46  1  0
 24 47  1  0
M  END
>  <meeko>  (5) 
{"is_sidechain": [false], "free_energy": -6.802, "intermolecular_energy": -8.614, "internal_energy": -0.883}

$$$$
Bavachinin_10337211_out
     RDKit          3D

 47 49  0  0  0  0  0  0  0  0999 V2000
   33.3660   77.3770   21.3730 C   0  0  0  0  0  0  0  0  0  0  0  0
   32.7340   76.2970   22.0560 O   0  0  0  0  0  0  0  0  0  0  0  0
   31.7850   75.6010   21.3690 C   0  0  0  0  0  0  0  0  0  0  0  0
   32.1820   74.5800   20.5050 C   0  0  0  0  0  0  0  0  0  0  0  0
   31.2220   73.8500   19.8030 C   0  0  0  0  0  0  0  0  0  0  0  0
   29.8690   74.1660   19.9440 C   0  0  0  0  0  0  0  0  0  0  0  0
   29.4680   75.1870   20.8100 C   0  0  0  0  0  0  0  0  0  0  0  0
   30.4310   75.9000   21.5250 C   0  0  0  0  0  0  0  0  0  0  0  0
   29.9930   76.9900   22.4480 C   0  0  0  0  0  0  0  0  0  0  0  0
   28.8930   77.8430   21.8660 C   0  0  0  0  0  0  0  0  0  0  0  0
   28.9980   78.8090   20.9340 C   0  0  0  0  0  0  0  0  0  0  0  0
   27.8550   79.6230   20.3970 C   0  0  0  0  0  0  0  0  0  0  0  0
   30.3380   79.1580   20.3460 C   0  0  0  0  0  0  0  0  0  0  0  0
   28.8720   73.4390   19.1310 C   0  0  0  0  0  0  0  0  0  0  0  0
   27.6740   73.6890   19.2130 O   0  0  0  0  0  0  0  0  0  0  0  0
   29.4240   72.4330   18.1550 C   0  0  0  0  0  0  0  0  0  0  0  0
   30.7090   71.8370   18.7270 C   0  0  1  0  0  0  0  0  0  0  0  0
   31.3090   70.8220   17.7770 C   0  0  0  0  0  0  0  0  0  0  0  0
   30.4930   70.1520   16.8670 C   0  0  0  0  0  0  0  0  0  0  0  0
   31.0450   69.2170   15.9910 C   0  0  0  0  0  0  0  0  0  0  0  0
   32.4150   68.9540   16.0260 C   0  0  0  0  0  0  0  0  0  0  0  0
   32.9540   68.0420   15.1710 O   0  0  0  0  0  0  0  0  0  0  0  0
   33.2310   69.6250   16.9360 C   0  0  0  0  0  0  0  0  0  0  0  0
   32.6790   70.5590   17.8120 C   0  0  0  0  0  0  0  0  0  0  0  0
   31.6860   72.8600   18.9760 O   0  0  0  0  0  0  0  0  0  0  0  0
   33.7795   78.0836   22.1076 H   0  0  0  0  0  0  0  0  0  0  0  0
   34.1783   76.9867   20.7422 H   0  0  0  0  0  0  0  0  0  0  0  0
   32.6279   77.8940   20.7422 H   0  0  0  0  0  0  0  0  0  0  0  0
   33.2503   74.3508   20.3773 H   0  0  0  0  0  0  0  0  0  0  0  0
   28.4009   75.4268   20.9271 H   0  0  0  0  0  0  0  0  0  0  0  0
   29.6286   76.5351   23.3809 H   0  0  0  0  0  0  0  0  0  0  0  0
   30.8604   77.6432   22.6238 H   0  0  0  0  0  0  0  0  0  0  0  0
   27.8802   77.6521   22.2506 H   0  0  0  0  0  0  0  0  0  0  0  0
   27.2741   80.0367   21.2345 H   0  0  0  0  0  0  0  0  0  0  0  0
   28.2480   80.4457   19.7817 H   0  0  0  0  0  0  0  0  0  0  0  0
   27.2060   78.9826   19.7817 H   0  0  0  0  0  0  0  0  0  0  0  0
   31.0569   79.3452   21.1573 H   0  0  0  0  0  0  0  0  0  0  0  0
   30.6948   78.3228   19.7254 H   0  0  0  0  0  0  0  0  0  0  0  0
   30.2421   80.0611   19.7254 H   0  0  0  0  0  0  0  0  0  0  0  0
   28.6865   71.6329   17.9936 H   0  0  0  0  0  0  0  0  0  0  0  0
   29.6385   72.9259   17.1953 H   0  0  0  0  0  0  0  0  0  0  0  0
   30.4404   71.3438   19.6728 H   0  0  0  0  0  0  0  0  0  0  0  0
   29.4133   70.3606   16.8395 H   0  0  0  0  0  0  0  0  0  0  0  0
   30.4009   68.6876   15.2734 H   0  0  0  0  0  0  0  0  0  0  0  0
   32.5210   67.8660   14.2980 H   0  0  0  0  0  0  0  0  0  0  0  0
   34.3109   69.4174   16.9629 H   0  0  0  0  0  0  0  0  0  0  0  0
   33.3229   71.0880   18.5300 H   0  0  0  0  0  0  0  0  0  0  0  0
  1  2  1  0
  2  3  1  0
  3  4  1  0
  4  5  2  0
  5  6  1  0
  6  7  2  0
  7  8  1  0
  8  9  1  0
  9 10  1  0
 10 11  2  3
 11 12  1  0
 11 13  1  0
  6 14  1  0
 14 15  2  0
 14 16  1  0
 16 17  1  0
 17 18  1  0
 18 19  1  0
 19 20  2  0
 20 21  1  0
 21 22  1  0
 21 23  2  0
 23 24  1  0
 17 25  1  0
  8  3  2  0
 24 18  2  0
 25  5  1  0
  1 26  1  0
  1 27  1  0
  1 28  1  0
  4 29  1  0
  7 30  1  0
  9 31  1  0
  9 32  1  0
 10 33  1  0
 12 34  1  0
 12 35  1  0
 12 36  1  0
 13 37  1  0
 13 38  1  0
 13 39  1  0
 16 40  1  0
 16 41  1  0
 17 42  1  1
 19 43  1  0
 20 44  1  0
 22 45  1  0
 23 46  1  0
 24 47  1  0
M  END
>  <meeko>  (6) 
{"is_sidechain": [false], "free_energy": -6.632, "intermolecular_energy": -8.464, "internal_energy": -0.819}

$$$$
Bavachinin_10337211_out
     RDKit          3D

 47 49  0  0  0  0  0  0  0  0999 V2000
   33.0440   77.3480   22.6510 C   0  0  0  0  0  0  0  0  0  0  0  0
   31.6640   77.0980   22.4000 O   0  0  0  0  0  0  0  0  0  0  0  0
   31.3450   76.5330   21.2020 C   0  0  0  0  0  0  0  0  0  0  0  0
   31.8580   75.2740   20.8850 C   0  0  0  0  0  0  0  0  0  0  0  0
   31.5330   74.6760   19.6680 C   0  0  0  0  0  0  0  0  0  0  0  0
   30.7190   75.3540   18.7560 C   0  0  0  0  0  0  0  0  0  0  0  0
   30.2020   76.6130   19.0710 C   0  0  0  0  0  0  0  0  0  0  0  0
   30.5150   77.1980   20.2990 C   0  0  0  0  0  0  0  0  0  0  0  0
   29.9580   78.5450   20.6270 C   0  0  0  0  0  0  0  0  0  0  0  0
   28.4770   78.6480   20.3560 C   0  0  0  0  0  0  0  0  0  0  0  0
   27.8410   79.5150   19.5460 C   0  0  0  0  0  0  0  0  0  0  0  0
   26.3560   79.5620   19.3220 C   0  0  0  0  0  0  0  0  0  0  0  0
   28.6170   80.5510   18.7780 C   0  0  0  0  0  0  0  0  0  0  0  0
   30.4520   74.7430   17.4380 C   0  0  0  0  0  0  0  0  0  0  0  0
   29.7540   75.3060   16.6020 O   0  0  0  0  0  0  0  0  0  0  0  0
   31.1450   73.4330   17.1650 C   0  0  0  0  0  0  0  0  0  0  0  0
   31.3080   72.6730   18.4800 C   0  0  1  0  0  0  0  0  0  0  0  0
   32.0080   71.3480   18.2610 C   0  0  0  0  0  0  0  0  0  0  0  0
   33.3850   71.3160   18.0440 C   0  0  0  0  0  0  0  0  0  0  0  0
   34.0310   70.0970   17.8410 C   0  0  0  0  0  0  0  0  0  0  0  0
   33.2990   68.9090   17.8560 C   0  0  0  0  0  0  0  0  0  0  0  0
   33.9300   67.7190   17.6580 O   0  0  0  0  0  0  0  0  0  0  0  0
   31.9220   68.9420   18.0730 C   0  0  0  0  0  0  0  0  0  0  0  0
   31.2760   70.1610   18.2760 C   0  0  0  0  0  0  0  0  0  0  0  0
   32.0700   73.4380   19.4270 O   0  0  0  0  0  0  0  0  0  0  0  0
   33.2194   77.3798   23.7365 H   0  0  0  0  0  0  0  0  0  0  0  0
   33.6491   76.5449   22.2052 H   0  0  0  0  0  0  0  0  0  0  0  0
   33.3289   78.3124   22.2052 H   0  0  0  0  0  0  0  0  0  0  0  0
   32.5182   74.7540   21.5948 H   0  0  0  0  0  0  0  0  0  0  0  0
   29.5527   77.1397   18.3562 H   0  0  0  0  0  0  0  0  0  0  0  0
   30.1350   78.7482   21.6935 H   0  0  0  0  0  0  0  0  0  0  0  0
   30.4642   79.2784   19.9820 H   0  0  0  0  0  0  0  0  0  0  0  0
   27.8385   77.9256   20.8856 H   0  0  0  0  0  0  0  0  0  0  0  0
   25.8391   79.5784   20.2928 H   0  0  0  0  0  0  0  0  0  0  0  0
   26.0993   80.4687   18.7546 H   0  0  0  0  0  0  0  0  0  0  0  0
   26.0425   78.6733   18.7546 H   0  0  0  0  0  0  0  0  0  0  0  0
   29.1233   81.2269   19.4828 H   0  0  0  0  0  0  0  0  0  0  0  0
   29.3663   80.0532   18.1449 H   0  0  0  0  0  0  0  0  0  0  0  0
   27.9286   81.1301   18.1449 H   0  0  0  0  0  0  0  0  0  0  0  0
   30.5416   72.8353   16.4659 H   0  0  0  0  0  0  0  0  0  0  0  0
   32.1330   73.6210   16.7196 H   0  0  0  0  0  0  0  0  0  0  0  0
   30.2968   72.4958   18.8750 H   0  0  0  0  0  0  0  0  0  0  0  0
   33.9618   72.2526   18.0329 H   0  0  0  0  0  0  0  0  0  0  0  0
   35.1172   70.0719   17.6691 H   0  0  0  0  0  0  0  0  0  0  0  0
   34.8340   67.5700   18.0340 H   0  0  0  0  0  0  0  0  0  0  0  0
   31.3448   68.0057   18.0841 H   0  0  0  0  0  0  0  0  0  0  0  0
   30.1898   70.1864   18.4478 H   0  0  0  0  0  0  0  0  0  0  0  0
  1  2  1  0
  2  3  1  0
  3  4  1  0
  4  5  2  0
  5  6  1  0
  6  7  2  0
  7  8  1  0
  8  9  1  0
  9 10  1  0
 10 11  2  3
 11 12  1  0
 11 13  1  0
  6 14  1  0
 14 15  2  0
 14 16  1  0
 16 17  1  0
 17 18  1  0
 18 19  1  0
 19 20  2  0
 20 21  1  0
 21 22  1  0
 21 23  2  0
 23 24  1  0
 17 25  1  0
  8  3  2  0
 24 18  2  0
 25  5  1  0
  1 26  1  0
  1 27  1  0
  1 28  1  0
  4 29  1  0
  7 30  1  0
  9 31  1  0
  9 32  1  0
 10 33  1  0
 12 34  1  0
 12 35  1  0
 12 36  1  0
 13 37  1  0
 13 38  1  0
 13 39  1  0
 16 40  1  0
 16 41  1  0
 17 42  1  1
 19 43  1  0
 20 44  1  0
 22 45  1  0
 23 46  1  0
 24 47  1  0
M  END
>  <meeko>  (7) 
{"is_sidechain": [false], "free_energy": -6.599, "intermolecular_energy": -8.403, "internal_energy": -0.837}

$$$$
Bavachinin_10337211_out
     RDKit          3D

 47 49  0  0  0  0  0  0  0  0999 V2000
   29.6050   77.7300   22.4540 C   0  0  0  0  0  0  0  0  0  0  0  0
   30.9090   77.2640   22.7930 O   0  0  0  0  0  0  0  0  0  0  0  0
   31.6230   76.6540   21.8060 C   0  0  0  0  0  0  0  0  0  0  0  0
   31.3050   75.3440   21.4460 C   0  0  0  0  0  0  0  0  0  0  0  0
   32.0190   74.7090   20.4290 C   0  0  0  0  0  0  0  0  0  0  0  0
   33.0710   75.3760   19.7970 C   0  0  0  0  0  0  0  0  0  0  0  0
   33.3900   76.6890   20.1540 C   0  0  0  0  0  0  0  0  0  0  0  0
   32.6600   77.3260   21.1570 C   0  0  0  0  0  0  0  0  0  0  0  0
   33.0090   78.7290   21.5320 C   0  0  0  0  0  0  0  0  0  0  0  0
   32.6940   79.7230   20.4410 C   0  0  0  0  0  0  0  0  0  0  0  0
   33.5580   80.4440   19.7010 C   0  0  0  0  0  0  0  0  0  0  0  0
   33.1740   81.4190   18.6260 C   0  0  0  0  0  0  0  0  0  0  0  0
   35.0410   80.3160   19.9220 C   0  0  0  0  0  0  0  0  0  0  0  0
   33.8700   74.6610   18.7800 C   0  0  0  0  0  0  0  0  0  0  0  0
   34.8090   75.2020   18.2080 O   0  0  0  0  0  0  0  0  0  0  0  0
   33.5040   73.2170   18.5510 C   0  0  0  0  0  0  0  0  0  0  0  0
   32.0060   73.0380   18.7900 C   0  0  1  0  0  0  0  0  0  0  0  0
   31.5880   71.5980   18.5790 C   0  0  0  0  0  0  0  0  0  0  0  0
   32.3960   70.7410   17.8340 C   0  0  0  0  0  0  0  0  0  0  0  0
   32.0120   69.4150   17.6390 C   0  0  0  0  0  0  0  0  0  0  0  0
   30.8200   68.9450   18.1910 C   0  0  0  0  0  0  0  0  0  0  0  0
   30.4450   67.6510   18.0000 O   0  0  0  0  0  0  0  0  0  0  0  0
   30.0120   69.8030   18.9360 C   0  0  0  0  0  0  0  0  0  0  0  0
   30.3960   71.1300   19.1310 C   0  0  0  0  0  0  0  0  0  0  0  0
   31.6480   73.4240   20.1270 O   0  0  0  0  0  0  0  0  0  0  0  0
   29.0374   77.9328   23.3742 H   0  0  0  0  0  0  0  0  0  0  0  0
   29.6880   78.6541   21.8631 H   0  0  0  0  0  0  0  0  0  0  0  0
   29.0835   76.9626   21.8631 H   0  0  0  0  0  0  0  0  0  0  0  0
   30.4926   74.8125   21.9632 H   0  0  0  0  0  0  0  0  0  0  0  0
   34.2115   77.2165   19.6472 H   0  0  0  0  0  0  0  0  0  0  0  0
   32.4400   79.0037   22.4324 H   0  0  0  0  0  0  0  0  0  0  0  0
   34.0943   78.7640   21.7078 H   0  0  0  0  0  0  0  0  0  0  0  0
   31.6269   79.8778   20.2233 H   0  0  0  0  0  0  0  0  0  0  0  0
   32.8081   82.3481   19.0874 H   0  0  0  0  0  0  0  0  0  0  0  0
   34.0519   81.6408   18.0015 H   0  0  0  0  0  0  0  0  0  0  0  0
   32.3806   80.9825   18.0015 H   0  0  0  0  0  0  0  0  0  0  0  0
   35.2506   80.2979   21.0017 H   0  0  0  0  0  0  0  0  0  0  0  0
   35.4010   79.3834   19.4629 H   0  0  0  0  0  0  0  0  0  0  0  0
   35.5555   81.1731   19.4629 H   0  0  0  0  0  0  0  0  0  0  0  0
   33.7484   72.9345   17.5164 H   0  0  0  0  0  0  0  0  0  0  0  0
   34.0693   72.5766   19.2441 H   0  0  0  0  0  0  0  0  0  0  0  0
   31.4863   73.6828   18.0660 H   0  0  0  0  0  0  0  0  0  0  0  0
   33.3366   71.1108   17.3999 H   0  0  0  0  0  0  0  0  0  0  0  0
   32.6491   68.7391   17.0497 H   0  0  0  0  0  0  0  0  0  0  0  0
   30.8860   66.9280   18.5120 H   0  0  0  0  0  0  0  0  0  0  0  0
   29.0713   69.4334   19.3702 H   0  0  0  0  0  0  0  0  0  0  0  0
   29.7590   71.8065   19.7197 H   0  0  0  0  0  0  0  0  0  0  0  0
  1  2  1  0
  2  3  1  0
  3  4  1  0
  4  5  2  0
  5  6  1  0
  6  7  2  0
  7  8  1  0
  8  9  1  0
  9 10  1  0
 10 11  2  3
 11 12  1  0
 11 13  1  0
  6 14  1  0
 14 15  2  0
 14 16  1  0
 16 17  1  0
 17 18  1  0
 18 19  1  0
 19 20  2  0
 20 21  1  0
 21 22  1  0
 21 23  2  0
 23 24  1  0
 17 25  1  0
  8  3  2  0
 24 18  2  0
 25  5  1  0
  1 26  1  0
  1 27  1  0
  1 28  1  0
  4 29  1  0
  7 30  1  0
  9 31  1  0
  9 32  1  0
 10 33  1  0
 12 34  1  0
 12 35  1  0
 12 36  1  0
 13 37  1  0
 13 38  1  0
 13 39  1  0
 16 40  1  0
 16 41  1  0
 17 42  1  6
 19 43  1  0
 20 44  1  0
 22 45  1  0
 23 46  1  0
 24 47  1  0
M  END
>  <meeko>  (8) 
{"is_sidechain": [false], "free_energy": -6.536, "intermolecular_energy": -8.266, "internal_energy": -0.896}

$$$$
Bavachinin_10337211_out
     RDKit          3D

 47 49  0  0  0  0  0  0  0  0999 V2000
   29.1710   73.2280   22.6540 C   0  0  0  0  0  0  0  0  0  0  0  0
   29.3190   74.5590   22.1650 O   0  0  0  0  0  0  0  0  0  0  0  0
   29.7740   74.7010   20.8880 C   0  0  0  0  0  0  0  0  0  0  0  0
   29.8480   73.5780   20.0620 C   0  0  0  0  0  0  0  0  0  0  0  0
   30.3000   73.7090   18.7490 C   0  0  0  0  0  0  0  0  0  0  0  0
   30.7070   74.9580   18.2750 C   0  0  0  0  0  0  0  0  0  0  0  0
   30.6320   76.0850   19.0980 C   0  0  0  0  0  0  0  0  0  0  0  0
   30.1590   75.9520   20.4050 C   0  0  0  0  0  0  0  0  0  0  0  0
   30.0830   77.1620   21.2780 C   0  0  0  0  0  0  0  0  0  0  0  0
   28.8110   77.9480   21.0790 C   0  0  0  0  0  0  0  0  0  0  0  0
   28.6120   79.0160   20.2820 C   0  0  0  0  0  0  0  0  0  0  0  0
   27.3130   79.7540   20.1310 C   0  0  0  0  0  0  0  0  0  0  0  0
   29.7400   79.5690   19.4540 C   0  0  0  0  0  0  0  0  0  0  0  0
   31.2610   75.0650   16.9090 C   0  0  0  0  0  0  0  0  0  0  0  0
   31.6410   76.1380   16.4550 O   0  0  0  0  0  0  0  0  0  0  0  0
   31.3930   73.7710   16.1500 C   0  0  0  0  0  0  0  0  0  0  0  0
   30.2780   72.8210   16.5840 C   0  0  1  0  0  0  0  0  0  0  0  0
   30.3730   71.4980   15.8520 C   0  0  0  0  0  0  0  0  0  0  0  0
   29.2110   70.8120   15.5030 C   0  0  0  0  0  0  0  0  0  0  0  0
   29.2970   69.5940   14.8290 C   0  0  0  0  0  0  0  0  0  0  0  0
   30.5460   69.0630   14.5040 C   0  0  0  0  0  0  0  0  0  0  0  0
   30.6290   67.8740   13.8470 O   0  0  0  0  0  0  0  0  0  0  0  0
   31.7070   69.7500   14.8540 C   0  0  0  0  0  0  0  0  0  0  0  0
   31.6220   70.9680   15.5280 C   0  0  0  0  0  0  0  0  0  0  0  0
   30.3420   72.5640   17.9960 O   0  0  0  0  0  0  0  0  0  0  0  0
   29.1722   73.2392   23.7539 H   0  0  0  0  0  0  0  0  0  0  0  0
   28.2206   72.8082   22.2927 H   0  0  0  0  0  0  0  0  0  0  0  0
   30.0059   72.6097   22.2927 H   0  0  0  0  0  0  0  0  0  0  0  0
   29.5503   72.5912   20.4461 H   0  0  0  0  0  0  0  0  0  0  0  0
   30.9433   77.0696   18.7189 H   0  0  0  0  0  0  0  0  0  0  0  0
   30.1370   76.8411   22.3288 H   0  0  0  0  0  0  0  0  0  0  0  0
   30.9233   77.8184   21.0078 H   0  0  0  0  0  0  0  0  0  0  0  0
   27.9384   77.6073   21.6556 H   0  0  0  0  0  0  0  0  0  0  0  0
   26.9051   79.9857   21.1260 H   0  0  0  0  0  0  0  0  0  0  0  0
   27.4848   80.6894   19.5782 H   0  0  0  0  0  0  0  0  0  0  0  0
   26.5975   79.1275   19.5782 H   0  0  0  0  0  0  0  0  0  0  0  0
   30.5273   79.9550   20.1181 H   0  0  0  0  0  0  0  0  0  0  0  0
   30.1540   78.7717   18.8193 H   0  0  0  0  0  0  0  0  0  0  0  0
   29.3633   80.3846   18.8193 H   0  0  0  0  0  0  0  0  0  0  0  0
   31.3107   73.9670   15.0707 H   0  0  0  0  0  0  0  0  0  0  0  0
   32.3715   73.3153   16.3617 H   0  0  0  0  0  0  0  0  0  0  0  0
   29.3244   73.3112   16.3384 H   0  0  0  0  0  0  0  0  0  0  0  0
   28.2267   71.2310   15.7590 H   0  0  0  0  0  0  0  0  0  0  0  0
   28.3803   69.0519   14.5536 H   0  0  0  0  0  0  0  0  0  0  0  0
   31.3420   67.2280   14.0810 H   0  0  0  0  0  0  0  0  0  0  0  0
   32.6915   69.3311   14.5984 H   0  0  0  0  0  0  0  0  0  0  0  0
   32.5386   71.5100   15.8037 H   0  0  0  0  0  0  0  0  0  0  0  0
  1  2  1  0
  2  3  1  0
  3  4  1  0
  4  5  2  0
  5  6  1  0
  6  7  2  0
  7  8  1  0
  8  9  1  0
  9 10  1  0
 10 11  2  3
 11 12  1  0
 11 13  1  0
  6 14  1  0
 14 15  2  0
 14 16  1  0
 16 17  1  0
 17 18  1  0
 18 19  1  0
 19 20  2  0
 20 21  1  0
 21 22  1  0
 21 23  2  0
 23 24  1  0
 17 25  1  0
  8  3  2  0
 24 18  2  0
 25  5  1  0
  1 26  1  0
  1 27  1  0
  1 28  1  0
  4 29  1  0
  7 30  1  0
  9 31  1  0
  9 32  1  0
 10 33  1  0
 12 34  1  0
 12 35  1  0
 12 36  1  0
 13 37  1  0
 13 38  1  0
 13 39  1  0
 16 40  1  0
 16 41  1  0
 17 42  1  1
 19 43  1  0
 20 44  1  0
 22 45  1  0
 23 46  1  0
 24 47  1  0
M  END
>  <meeko>  (9) 
{"is_sidechain": [false], "free_energy": -6.533, "intermolecular_energy": -8.298, "internal_energy": -0.859}

$$$$
