CHEMBL327690_10048142_out
     RDKit          3D

 52 53  0  0  0  0  0  0  0  0999 V2000
   28.7760   77.4480   21.3280 O   0  0  0  0  0  0  0  0  0  0  0  0
   29.9540   77.7830   21.3180 C   0  0  0  0  0  0  0  0  0  0  0  0
   30.8190   77.9030   22.5510 C   0  0  0  0  0  0  0  0  0  0  0  0
   32.2470   77.3980   22.3310 C   0  0  0  0  0  0  0  0  0  0  0  0
   32.4540   75.9260   22.7160 C   0  0  0  0  0  0  0  0  0  0  0  0
   31.9580   74.9360   21.6940 C   0  0  0  0  0  0  0  0  0  0  0  0
   30.8500   74.1380   21.9770 C   0  0  0  0  0  0  0  0  0  0  0  0
   30.3910   73.2210   21.0300 C   0  0  0  0  0  0  0  0  0  0  0  0
   31.0400   73.1020   19.8020 C   0  0  0  0  0  0  0  0  0  0  0  0
   30.5750   72.1750   18.8450 N   0  0  0  0  0  0  0  0  0  0  0  0
   29.9990   72.6360   17.5970 C   0  0  0  0  0  0  0  0  0  0  0  0
   28.7830   73.5130   17.8480 C   0  0  0  0  0  0  0  0  0  0  0  0
   27.6280   72.7240   18.9490 Cl  0  0  0  0  0  0  0  0  0  0  0  0
   30.6800   70.7510   19.0920 C   0  0  0  0  0  0  0  0  0  0  0  0
   31.5330   70.0750   18.0300 C   0  0  0  0  0  0  0  0  0  0  0  0
   33.1580   70.7990   17.9440 Cl  0  0  0  0  0  0  0  0  0  0  0  0
   32.1490   73.9000   19.5190 C   0  0  0  0  0  0  0  0  0  0  0  0
   32.6080   74.8170   20.4650 C   0  0  0  0  0  0  0  0  0  0  0  0
   30.6770   78.1330   20.2150 O   0  0  0  0  0  0  0  0  0  0  0  0
   29.9310   78.2430   18.9980 C   0  0  0  0  0  0  0  0  0  0  0  0
   29.4960   79.6830   18.8020 C   0  0  0  0  0  0  0  0  0  0  0  0
   28.1350   79.7650   18.3430 N   0  0  0  0  0  0  0  0  0  0  0  0
   27.0360   79.8980   19.1590 C   0  0  0  0  0  0  0  0  0  0  0  0
   26.9800   79.9670   20.3750 O   0  0  0  0  0  0  0  0  0  0  0  0
   25.8600   79.9450   18.2760 C   0  0  0  0  0  0  0  0  0  0  0  0
   26.2800   79.8410   17.0140 C   0  0  0  0  0  0  0  0  0  0  0  0
   27.7460   79.7230   17.0250 C   0  0  0  0  0  0  0  0  0  0  0  0
   28.4260   79.6090   16.0180 O   0  0  0  0  0  0  0  0  0  0  0  0
   30.8632   78.9616   22.8466 H   0  0  0  0  0  0  0  0  0  0  0  0
   30.3654   77.2769   23.3334 H   0  0  0  0  0  0  0  0  0  0  0  0
   32.4954   77.5154   21.2659 H   0  0  0  0  0  0  0  0  0  0  0  0
   32.9001   77.9936   22.9858 H   0  0  0  0  0  0  0  0  0  0  0  0
   33.5311   75.7576   22.8626 H   0  0  0  0  0  0  0  0  0  0  0  0
   31.8633   75.7557   23.6282 H   0  0  0  0  0  0  0  0  0  0  0  0
   30.3379   74.2311   22.9461 H   0  0  0  0  0  0  0  0  0  0  0  0
   29.5166   72.5919   21.2528 H   0  0  0  0  0  0  0  0  0  0  0  0
   30.7533   73.2166   17.0457 H   0  0  0  0  0  0  0  0  0  0  0  0
   29.6835   71.7593   17.0123 H   0  0  0  0  0  0  0  0  0  0  0  0
   29.1127   74.4621   18.2957 H   0  0  0  0  0  0  0  0  0  0  0  0
   28.2790   73.6889   16.8862 H   0  0  0  0  0  0  0  0  0  0  0  0
   31.1393   70.5899   20.0785 H   0  0  0  0  0  0  0  0  0  0  0  0
   29.6707   70.3146   19.0609 H   0  0  0  0  0  0  0  0  0  0  0  0
   31.6295   69.0070   18.2749 H   0  0  0  0  0  0  0  0  0  0  0  0
   31.0422   70.2090   17.0547 H   0  0  0  0  0  0  0  0  0  0  0  0
   32.6614   73.8061   18.5501 H   0  0  0  0  0  0  0  0  0  0  0  0
   33.4823   75.4462   20.2420 H   0  0  0  0  0  0  0  0  0  0  0  0
   30.5611   77.9316   18.1519 H   0  0  0  0  0  0  0  0  0  0  0  0
   29.0436   77.5951   19.0512 H   0  0  0  0  0  0  0  0  0  0  0  0
   29.5827   80.2161   19.7602 H   0  0  0  0  0  0  0  0  0  0  0  0
   30.1452   80.1389   18.0400 H   0  0  0  0  0  0  0  0  0  0  0  0
   24.8141   80.0482   18.6007 H   0  0  0  0  0  0  0  0  0  0  0  0
   25.6401   79.8431   16.1193 H   0  0  0  0  0  0  0  0  0  0  0  0
  1  2  2  0
  2  3  1  0
  3  4  1  0
  4  5  1  0
  5  6  1  0
  6  7  1  0
  7  8  2  0
  8  9  1  0
  9 10  1  0
 10 11  1  0
 11 12  1  0
 12 13  1  0
 10 14  1  0
 14 15  1  0
 15 16  1  0
  9 17  2  0
 17 18  1  0
  2 19  1  0
 19 20  1  0
 20 21  1  0
 21 22  1  0
 22 23  1  0
 23 24  2  0
 23 25  1  0
 25 26  2  0
 26 27  1  0
 27 28  2  0
 18  6  2  0
 27 22  1  0
  3 29  1  0
  3 30  1  0
  4 31  1  0
  4 32  1  0
  5 33  1  0
  5 34  1  0
  7 35  1  0
  8 36  1  0
 11 37  1  0
 11 38  1  0
 12 39  1  0
 12 40  1  0
 14 41  1  0
 14 42  1  0
 15 43  1  0
 15 44  1  0
 17 45  1  0
 18 46  1  0
 20 47  1  0
 20 48  1  0
 21 49  1  0
 21 50  1  0
 25 51  1  0
 26 52  1  0
M  END
>  <meeko>  (1) 
{"is_sidechain": [false], "free_energy": -6.279, "intermolecular_energy": -11.051, "internal_energy": -1.659}

$$$$
CHEMBL327690_10048142_out
     RDKit          3D

 52 53  0  0  0  0  0  0  0  0999 V2000
   33.6990   71.0000   14.0860 O   0  0  0  0  0  0  0  0  0  0  0  0
   33.7170   70.2250   15.0350 C   0  0  0  0  0  0  0  0  0  0  0  0
   33.6050   70.6440   16.4820 C   0  0  0  0  0  0  0  0  0  0  0  0
   32.5050   71.6800   16.7220 C   0  0  0  0  0  0  0  0  0  0  0  0
   31.6240   71.3820   17.9440 C   0  0  0  0  0  0  0  0  0  0  0  0
   31.6420   72.4510   19.0060 C   0  0  0  0  0  0  0  0  0  0  0  0
   30.7010   72.4280   20.0350 C   0  0  0  0  0  0  0  0  0  0  0  0
   30.7180   73.4180   21.0180 C   0  0  0  0  0  0  0  0  0  0  0  0
   31.6760   74.4310   20.9710 C   0  0  0  0  0  0  0  0  0  0  0  0
   31.6920   75.4310   21.9660 N   0  0  0  0  0  0  0  0  0  0  0  0
   32.9440   75.8390   22.5750 C   0  0  0  0  0  0  0  0  0  0  0  0
   33.1380   77.3430   22.4670 C   0  0  0  0  0  0  0  0  0  0  0  0
   33.3250   77.8550   20.7720 Cl  0  0  0  0  0  0  0  0  0  0  0  0
   30.4620   76.0730   22.3820 C   0  0  0  0  0  0  0  0  0  0  0  0
   29.7260   76.6660   21.1900 C   0  0  0  0  0  0  0  0  0  0  0  0
   28.1070   75.9470   21.0040 Cl  0  0  0  0  0  0  0  0  0  0  0  0
   32.6170   74.4540   19.9420 C   0  0  0  0  0  0  0  0  0  0  0  0
   32.6000   73.4640   18.9590 C   0  0  0  0  0  0  0  0  0  0  0  0
   33.8710   68.8720   14.9580 O   0  0  0  0  0  0  0  0  0  0  0  0
   33.0900   68.1090   15.8840 C   0  0  0  0  0  0  0  0  0  0  0  0
   31.8460   67.5900   15.1870 C   0  0  0  0  0  0  0  0  0  0  0  0
   30.7440   68.5040   15.3240 N   0  0  0  0  0  0  0  0  0  0  0  0
   29.9650   68.6340   16.4500 C   0  0  0  0  0  0  0  0  0  0  0  0
   30.0340   68.0360   17.5100 O   0  0  0  0  0  0  0  0  0  0  0  0
   28.9680   69.6750   16.1550 C   0  0  0  0  0  0  0  0  0  0  0  0
   29.1770   70.1130   14.9120 C   0  0  0  0  0  0  0  0  0  0  0  0
   30.3180   69.3740   14.3490 C   0  0  0  0  0  0  0  0  0  0  0  0
   30.7510   69.5490   13.2220 O   0  0  0  0  0  0  0  0  0  0  0  0
   33.3856   69.7531   17.0887 H   0  0  0  0  0  0  0  0  0  0  0  0
   34.5612   71.1086   16.7645 H   0  0  0  0  0  0  0  0  0  0  0  0
   32.9798   72.6614   16.8686 H   0  0  0  0  0  0  0  0  0  0  0  0
   31.8468   71.6561   15.8410 H   0  0  0  0  0  0  0  0  0  0  0  0
   30.5871   71.2597   17.5978 H   0  0  0  0  0  0  0  0  0  0  0  0
   32.0335   70.4733   18.4094 H   0  0  0  0  0  0  0  0  0  0  0  0
   29.9454   71.6294   20.0716 H   0  0  0  0  0  0  0  0  0  0  0  0
   29.9761   73.3998   21.8300 H   0  0  0  0  0  0  0  0  0  0  0  0
   32.9376   75.5525   23.6370 H   0  0  0  0  0  0  0  0  0  0  0  0
   33.7697   75.3404   22.0462 H   0  0  0  0  0  0  0  0  0  0  0  0
   32.2617   77.8486   22.8988 H   0  0  0  0  0  0  0  0  0  0  0  0
   34.0538   77.6136   23.0130 H   0  0  0  0  0  0  0  0  0  0  0  0
   29.8153   75.3291   22.8702 H   0  0  0  0  0  0  0  0  0  0  0  0
   30.7099   76.8859   23.0804 H   0  0  0  0  0  0  0  0  0  0  0  0
   29.6211   77.7510   21.3375 H   0  0  0  0  0  0  0  0  0  0  0  0
   30.3074   76.4505   20.2814 H   0  0  0  0  0  0  0  0  0  0  0  0
   33.3726   75.2526   19.9054 H   0  0  0  0  0  0  0  0  0  0  0  0
   33.3419   73.4822   18.1470 H   0  0  0  0  0  0  0  0  0  0  0  0
   33.6845   67.2605   16.2536 H   0  0  0  0  0  0  0  0  0  0  0  0
   32.7973   68.7472   16.7308 H   0  0  0  0  0  0  0  0  0  0  0  0
   32.0661   67.4534   14.1179 H   0  0  0  0  0  0  0  0  0  0  0  0
   31.5622   66.6353   15.6539 H   0  0  0  0  0  0  0  0  0  0  0  0
   28.1852   70.0309   16.8409 H   0  0  0  0  0  0  0  0  0  0  0  0
   28.5963   70.8924   14.3969 H   0  0  0  0  0  0  0  0  0  0  0  0
  1  2  2  0
  2  3  1  0
  3  4  1  0
  4  5  1  0
  5  6  1  0
  6  7  1  0
  7  8  2  0
  8  9  1  0
  9 10  1  0
 10 11  1  0
 11 12  1  0
 12 13  1  0
 10 14  1  0
 14 15  1  0
 15 16  1  0
  9 17  2  0
 17 18  1  0
  2 19  1  0
 19 20  1  0
 20 21  1  0
 21 22  1  0
 22 23  1  0
 23 24  2  0
 23 25  1  0
 25 26  2  0
 26 27  1  0
 27 28  2  0
 18  6  2  0
 27 22  1  0
  3 29  1  0
  3 30  1  0
  4 31  1  0
  4 32  1  0
  5 33  1  0
  5 34  1  0
  7 35  1  0
  8 36  1  0
 11 37  1  0
 11 38  1  0
 12 39  1  0
 12 40  1  0
 14 41  1  0
 14 42  1  0
 15 43  1  0
 15 44  1  0
 17 45  1  0
 18 46  1  0
 20 47  1  0
 20 48  1  0
 21 49  1  0
 21 50  1  0
 25 51  1  0
 26 52  1  0
M  END
>  <meeko>  (2) 
{"is_sidechain": [false], "free_energy": -6.218, "intermolecular_energy": -10.801, "internal_energy": -1.802}

$$$$
CHEMBL327690_10048142_out
     RDKit          3D

 52 53  0  0  0  0  0  0  0  0999 V2000
   33.4490   78.7620   21.7400 O   0  0  0  0  0  0  0  0  0  0  0  0
   32.7140   77.7980   21.5670 C   0  0  0  0  0  0  0  0  0  0  0  0
   31.9150   77.1260   22.6590 C   0  0  0  0  0  0  0  0  0  0  0  0
   32.0680   75.6030   22.6620 C   0  0  0  0  0  0  0  0  0  0  0  0
   30.7340   74.8430   22.6380 C   0  0  0  0  0  0  0  0  0  0  0  0
   30.6100   73.8280   21.5300 C   0  0  0  0  0  0  0  0  0  0  0  0
   31.5320   73.8220   20.4840 C   0  0  0  0  0  0  0  0  0  0  0  0
   31.4170   72.8810   19.4590 C   0  0  0  0  0  0  0  0  0  0  0  0
   30.3800   71.9490   19.4810 C   0  0  0  0  0  0  0  0  0  0  0  0
   30.2650   70.9990   18.4450 N   0  0  0  0  0  0  0  0  0  0  0  0
   29.1480   71.0540   17.5210 C   0  0  0  0  0  0  0  0  0  0  0  0
   29.6060   71.4860   16.1370 C   0  0  0  0  0  0  0  0  0  0  0  0
   28.9800   70.3970   14.8750 Cl  0  0  0  0  0  0  0  0  0  0  0  0
   31.2670   69.9660   18.2800 C   0  0  0  0  0  0  0  0  0  0  0  0
   30.6240   68.5900   18.2010 C   0  0  0  0  0  0  0  0  0  0  0  0
   30.8300   67.8680   16.5860 Cl  0  0  0  0  0  0  0  0  0  0  0  0
   29.4580   71.9560   20.5280 C   0  0  0  0  0  0  0  0  0  0  0  0
   29.5720   72.8950   21.5530 C   0  0  0  0  0  0  0  0  0  0  0  0
   32.5130   77.1480   20.3840 O   0  0  0  0  0  0  0  0  0  0  0  0
   31.7920   77.8830   19.3910 C   0  0  0  0  0  0  0  0  0  0  0  0
   30.3670   77.3670   19.3160 C   0  0  0  0  0  0  0  0  0  0  0  0
   29.4120   78.4240   19.5100 N   0  0  0  0  0  0  0  0  0  0  0  0
   29.0340   79.3310   18.5470 C   0  0  0  0  0  0  0  0  0  0  0  0
   29.4090   79.4310   17.3910 O   0  0  0  0  0  0  0  0  0  0  0  0
   28.0450   80.2220   19.1720 C   0  0  0  0  0  0  0  0  0  0  0  0
   27.8720   79.8330   20.4360 C   0  0  0  0  0  0  0  0  0  0  0  0
   28.7430   78.6740   20.6850 C   0  0  0  0  0  0  0  0  0  0  0  0
   28.8110   78.0930   21.7550 O   0  0  0  0  0  0  0  0  0  0  0  0
   32.2541   77.5142   23.6308 H   0  0  0  0  0  0  0  0  0  0  0  0
   30.8538   77.3495   22.4749 H   0  0  0  0  0  0  0  0  0  0  0  0
   32.6485   75.3116   21.7742 H   0  0  0  0  0  0  0  0  0  0  0  0
   32.5711   75.3348   23.6027 H   0  0  0  0  0  0  0  0  0  0  0  0
   30.6206   74.3184   23.5982 H   0  0  0  0  0  0  0  0  0  0  0  0
   29.9502   75.5944   22.4618 H   0  0  0  0  0  0  0  0  0  0  0  0
   32.3493   74.5580   20.4664 H   0  0  0  0  0  0  0  0  0  0  0  0
   32.1445   72.8748   18.6340 H   0  0  0  0  0  0  0  0  0  0  0  0
   28.6883   70.0570   17.4528 H   0  0  0  0  0  0  0  0  0  0  0  0
   28.4203   71.7894   17.8946 H   0  0  0  0  0  0  0  0  0  0  0  0
   29.2426   72.5058   15.9420 H   0  0  0  0  0  0  0  0  0  0  0  0
   30.7051   71.4510   16.1099 H   0  0  0  0  0  0  0  0  0  0  0  0
   31.8285   70.1544   17.3530 H   0  0  0  0  0  0  0  0  0  0  0  0
   31.9400   69.9887   19.1498 H   0  0  0  0  0  0  0  0  0  0  0  0
   31.0917   67.9330   18.9490 H   0  0  0  0  0  0  0  0  0  0  0  0
   29.5470   68.6995   18.3964 H   0  0  0  0  0  0  0  0  0  0  0  0
   28.6404   71.2203   20.5452 H   0  0  0  0  0  0  0  0  0  0  0  0
   28.8449   72.9003   22.3784 H   0  0  0  0  0  0  0  0  0  0  0  0
   31.7822   78.9497   19.6594 H   0  0  0  0  0  0  0  0  0  0  0  0
   32.2803   77.7556   18.4136 H   0  0  0  0  0  0  0  0  0  0  0  0
   30.2026   76.9141   18.3271 H   0  0  0  0  0  0  0  0  0  0  0  0
   30.2267   76.6246   20.1155 H   0  0  0  0  0  0  0  0  0  0  0  0
   27.5355   81.0644   18.6814 H   0  0  0  0  0  0  0  0  0  0  0  0
   27.1944   80.2988   21.1667 H   0  0  0  0  0  0  0  0  0  0  0  0
  1  2  2  0
  2  3  1  0
  3  4  1  0
  4  5  1  0
  5  6  1  0
  6  7  1  0
  7  8  2  0
  8  9  1  0
  9 10  1  0
 10 11  1  0
 11 12  1  0
 12 13  1  0
 10 14  1  0
 14 15  1  0
 15 16  1  0
  9 17  2  0
 17 18  1  0
  2 19  1  0
 19 20  1  0
 20 21  1  0
 21 22  1  0
 22 23  1  0
 23 24  2  0
 23 25  1  0
 25 26  2  0
 26 27  1  0
 27 28  2  0
 18  6  2  0
 27 22  1  0
  3 29  1  0
  3 30  1  0
  4 31  1  0
  4 32  1  0
  5 33  1  0
  5 34  1  0
  7 35  1  0
  8 36  1  0
 11 37  1  0
 11 38  1  0
 12 39  1  0
 12 40  1  0
 14 41  1  0
 14 42  1  0
 15 43  1  0
 15 44  1  0
 17 45  1  0
 18 46  1  0
 20 47  1  0
 20 48  1  0
 21 49  1  0
 21 50  1  0
 25 51  1  0
 26 52  1  0
M  END
>  <meeko>  (3) 
{"is_sidechain": [false], "free_energy": -6.159, "intermolecular_energy": -10.982, "internal_energy": -1.517}

$$$$
CHEMBL327690_10048142_out
     RDKit          3D

 52 53  0  0  0  0  0  0  0  0999 V2000
   29.4760   76.9570   20.0900 O   0  0  0  0  0  0  0  0  0  0  0  0
   29.3850   77.6970   21.0610 C   0  0  0  0  0  0  0  0  0  0  0  0
   30.0280   77.4310   22.4020 C   0  0  0  0  0  0  0  0  0  0  0  0
   31.1440   76.3850   22.3330 C   0  0  0  0  0  0  0  0  0  0  0  0
   30.7120   74.9830   22.7880 C   0  0  0  0  0  0  0  0  0  0  0  0
   30.5730   73.9780   21.6740 C   0  0  0  0  0  0  0  0  0  0  0  0
   29.5600   73.0200   21.7210 C   0  0  0  0  0  0  0  0  0  0  0  0
   29.4320   72.0890   20.6890 C   0  0  0  0  0  0  0  0  0  0  0  0
   30.3160   72.1170   19.6110 C   0  0  0  0  0  0  0  0  0  0  0  0
   30.1850   71.1750   18.5690 N   0  0  0  0  0  0  0  0  0  0  0  0
   29.3400   71.4600   17.4250 C   0  0  0  0  0  0  0  0  0  0  0  0
   30.1740   71.7970   16.2010 C   0  0  0  0  0  0  0  0  0  0  0  0
   29.3760   71.2630   14.7020 Cl  0  0  0  0  0  0  0  0  0  0  0  0
   30.9040   69.9180   18.6200 C   0  0  0  0  0  0  0  0  0  0  0  0
   29.9980   68.7560   18.2420 C   0  0  0  0  0  0  0  0  0  0  0  0
   30.4670   68.0490   16.6760 Cl  0  0  0  0  0  0  0  0  0  0  0  0
   31.3290   73.0740   19.5640 C   0  0  0  0  0  0  0  0  0  0  0  0
   31.4580   74.0050   20.5950 C   0  0  0  0  0  0  0  0  0  0  0  0
   28.6730   78.8600   21.1160 O   0  0  0  0  0  0  0  0  0  0  0  0
   27.7490   79.0690   20.0430 C   0  0  0  0  0  0  0  0  0  0  0  0
   28.1760   80.2820   19.2380 C   0  0  0  0  0  0  0  0  0  0  0  0
   28.9220   79.9030   18.0680 N   0  0  0  0  0  0  0  0  0  0  0  0
   28.3730   79.6460   16.8330 C   0  0  0  0  0  0  0  0  0  0  0  0
   27.2050   79.6790   16.4850 O   0  0  0  0  0  0  0  0  0  0  0  0
   29.4890   79.3010   15.9400 C   0  0  0  0  0  0  0  0  0  0  0  0
   30.6210   79.3590   16.6430 C   0  0  0  0  0  0  0  0  0  0  0  0
   30.2870   79.7440   18.0230 C   0  0  0  0  0  0  0  0  0  0  0  0
   31.1130   79.8790   18.9110 O   0  0  0  0  0  0  0  0  0  0  0  0
   30.4529   78.3726   22.7800 H   0  0  0  0  0  0  0  0  0  0  0  0
   29.2474   77.0360   23.0688 H   0  0  0  0  0  0  0  0  0  0  0  0
   31.4930   76.3190   21.2919 H   0  0  0  0  0  0  0  0  0  0  0  0
   31.9343   76.7153   23.0232 H   0  0  0  0  0  0  0  0  0  0  0  0
   31.4625   74.6063   23.4985 H   0  0  0  0  0  0  0  0  0  0  0  0
   29.7130   75.0939   23.2348 H   0  0  0  0  0  0  0  0  0  0  0  0
   28.8623   72.9983   22.5711 H   0  0  0  0  0  0  0  0  0  0  0  0
   28.6337   71.3331   20.7261 H   0  0  0  0  0  0  0  0  0  0  0  0
   28.7212   70.5772   17.2064 H   0  0  0  0  0  0  0  0  0  0  0  0
   28.7059   72.3260   17.6655 H   0  0  0  0  0  0  0  0  0  0  0  0
   30.3229   72.8860   16.1585 H   0  0  0  0  0  0  0  0  0  0  0  0
   31.1378   71.2735   16.2848 H   0  0  0  0  0  0  0  0  0  0  0  0
   31.7493   69.9584   17.9173 H   0  0  0  0  0  0  0  0  0  0  0  0
   31.2641   69.7617   19.6476 H   0  0  0  0  0  0  0  0  0  0  0  0
   30.0668   67.9809   19.0195 H   0  0  0  0  0  0  0  0  0  0  0  0
   28.9683   69.1334   18.1570 H   0  0  0  0  0  0  0  0  0  0  0  0
   32.0266   73.0949   18.7138 H   0  0  0  0  0  0  0  0  0  0  0  0
   32.2570   74.7601   20.5576 H   0  0  0  0  0  0  0  0  0  0  0  0
   27.7364   78.1825   19.3919 H   0  0  0  0  0  0  0  0  0  0  0  0
   26.7422   79.2366   20.4531 H   0  0  0  0  0  0  0  0  0  0  0  0
   27.2793   80.8373   18.9257 H   0  0  0  0  0  0  0  0  0  0  0  0
   28.8226   80.9064   19.8720 H   0  0  0  0  0  0  0  0  0  0  0  0
   29.4048   79.0398   14.8748 H   0  0  0  0  0  0  0  0  0  0  0  0
   31.6306   79.1542   16.2573 H   0  0  0  0  0  0  0  0  0  0  0  0
  1  2  2  0
  2  3  1  0
  3  4  1  0
  4  5  1  0
  5  6  1  0
  6  7  1  0
  7  8  2  0
  8  9  1  0
  9 10  1  0
 10 11  1  0
 11 12  1  0
 12 13  1  0
 10 14  1  0
 14 15  1  0
 15 16  1  0
  9 17  2  0
 17 18  1  0
  2 19  1  0
 19 20  1  0
 20 21  1  0
 21 22  1  0
 22 23  1  0
 23 24  2  0
 23 25  1  0
 25 26  2  0
 26 27  1  0
 27 28  2  0
 18  6  2  0
 27 22  1  0
  3 29  1  0
  3 30  1  0
  4 31  1  0
  4 32  1  0
  5 33  1  0
  5 34  1  0
  7 35  1  0
  8 36  1  0
 11 37  1  0
 11 38  1  0
 12 39  1  0
 12 40  1  0
 14 41  1  0
 14 42  1  0
 15 43  1  0
 15 44  1  0
 17 45  1  0
 18 46  1  0
 20 47  1  0
 20 48  1  0
 21 49  1  0
 21 50  1  0
 25 51  1  0
 26 52  1  0
M  END
>  <meeko>  (4) 
{"is_sidechain": [false], "free_energy": -6.152, "intermolecular_energy": -10.986, "internal_energy": -1.5}

$$$$
CHEMBL327690_10048142_out
     RDKit          3D

 52 53  0  0  0  0  0  0  0  0999 V2000
   34.0980   72.3000   18.3270 O   0  0  0  0  0  0  0  0  0  0  0  0
   33.4970   71.3650   17.8130 C   0  0  0  0  0  0  0  0  0  0  0  0
   32.2200   70.7680   18.3590 C   0  0  0  0  0  0  0  0  0  0  0  0
   31.0420   71.7440   18.3250 C   0  0  0  0  0  0  0  0  0  0  0  0
   30.3470   71.9280   19.6830 C   0  0  0  0  0  0  0  0  0  0  0  0
   30.7070   73.2020   20.4030 C   0  0  0  0  0  0  0  0  0  0  0  0
   31.4880   74.1660   19.7680 C   0  0  0  0  0  0  0  0  0  0  0  0
   31.8210   75.3460   20.4350 C   0  0  0  0  0  0  0  0  0  0  0  0
   31.3710   75.5600   21.7380 C   0  0  0  0  0  0  0  0  0  0  0  0
   31.7070   76.7530   22.4120 N   0  0  0  0  0  0  0  0  0  0  0  0
   33.0930   77.1670   22.5210 C   0  0  0  0  0  0  0  0  0  0  0  0
   33.3310   78.4750   21.7840 C   0  0  0  0  0  0  0  0  0  0  0  0
   34.0070   78.1940   20.1610 Cl  0  0  0  0  0  0  0  0  0  0  0  0
   30.6730   77.5860   22.9910 C   0  0  0  0  0  0  0  0  0  0  0  0
   29.5400   77.8150   22.0030 C   0  0  0  0  0  0  0  0  0  0  0  0
   30.0370   78.9050   20.6850 Cl  0  0  0  0  0  0  0  0  0  0  0  0
   30.5890   74.5960   22.3730 C   0  0  0  0  0  0  0  0  0  0  0  0
   30.2570   73.4160   21.7070 C   0  0  0  0  0  0  0  0  0  0  0  0
   33.8800   70.6860   16.6940 O   0  0  0  0  0  0  0  0  0  0  0  0
   33.3360   71.1700   15.4620 C   0  0  0  0  0  0  0  0  0  0  0  0
   32.6940   70.0200   14.7070 C   0  0  0  0  0  0  0  0  0  0  0  0
   31.2960   69.8980   15.0230 N   0  0  0  0  0  0  0  0  0  0  0  0
   30.3240   70.8000   14.6580 C   0  0  0  0  0  0  0  0  0  0  0  0
   30.4330   71.8390   14.0290 O   0  0  0  0  0  0  0  0  0  0  0  0
   29.0510   70.2830   15.1810 C   0  0  0  0  0  0  0  0  0  0  0  0
   29.2950   69.1350   15.8160 C   0  0  0  0  0  0  0  0  0  0  0  0
   30.7380   68.8600   15.7320 C   0  0  0  0  0  0  0  0  0  0  0  0
   31.2730   67.8800   16.2230 O   0  0  0  0  0  0  0  0  0  0  0  0
   31.9607   69.8844   17.7573 H   0  0  0  0  0  0  0  0  0  0  0  0
   32.4020   70.5082   19.4123 H   0  0  0  0  0  0  0  0  0  0  0  0
   31.4135   72.7238   17.9904 H   0  0  0  0  0  0  0  0  0  0  0  0
   30.2948   71.3190   17.6387 H   0  0  0  0  0  0  0  0  0  0  0  0
   29.2598   71.9236   19.5157 H   0  0  0  0  0  0  0  0  0  0  0  0
   30.6877   71.1007   20.3229 H   0  0  0  0  0  0  0  0  0  0  0  0
   31.8422   73.9968   18.7404 H   0  0  0  0  0  0  0  0  0  0  0  0
   32.4377   76.1065   19.9337 H   0  0  0  0  0  0  0  0  0  0  0  0
   33.3457   77.3016   23.5831 H   0  0  0  0  0  0  0  0  0  0  0  0
   33.7271   76.3900   22.0692 H   0  0  0  0  0  0  0  0  0  0  0  0
   32.3745   79.0092   21.6855 H   0  0  0  0  0  0  0  0  0  0  0  0
   34.0537   79.0705   22.3612 H   0  0  0  0  0  0  0  0  0  0  0  0
   30.2731   77.0912   23.8884 H   0  0  0  0  0  0  0  0  0  0  0  0
   31.1129   78.5600   23.2513 H   0  0  0  0  0  0  0  0  0  0  0  0
   29.2389   76.8481   21.5734 H   0  0  0  0  0  0  0  0  0  0  0  0
   28.7013   78.2817   22.5404 H   0  0  0  0  0  0  0  0  0  0  0  0
   30.2335   74.7660   23.4000 H   0  0  0  0  0  0  0  0  0  0  0  0
   29.6413   72.6550   22.2088 H   0  0  0  0  0  0  0  0  0  0  0  0
   32.5782   71.9390   15.6726 H   0  0  0  0  0  0  0  0  0  0  0  0
   34.1406   71.6061   14.8517 H   0  0  0  0  0  0  0  0  0  0  0  0
   32.8023   70.1967   13.6267 H   0  0  0  0  0  0  0  0  0  0  0  0
   33.1978   69.0881   15.0034 H   0  0  0  0  0  0  0  0  0  0  0  0
   28.0665   70.7605   15.0682 H   0  0  0  0  0  0  0  0  0  0  0  0
   28.5463   68.5031   16.3161 H   0  0  0  0  0  0  0  0  0  0  0  0
  1  2  2  0
  2  3  1  0
  3  4  1  0
  4  5  1  0
  5  6  1  0
  6  7  1  0
  7  8  2  0
  8  9  1  0
  9 10  1  0
 10 11  1  0
 11 12  1  0
 12 13  1  0
 10 14  1  0
 14 15  1  0
 15 16  1  0
  9 17  2  0
 17 18  1  0
  2 19  1  0
 19 20  1  0
 20 21  1  0
 21 22  1  0
 22 23  1  0
 23 24  2  0
 23 25  1  0
 25 26  2  0
 26 27  1  0
 27 28  2  0
 18  6  2  0
 27 22  1  0
  3 29  1  0
  3 30  1  0
  4 31  1  0
  4 32  1  0
  5 33  1  0
  5 34  1  0
  7 35  1  0
  8 36  1  0
 11 37  1  0
 11 38  1  0
 12 39  1  0
 12 40  1  0
 14 41  1  0
 14 42  1  0
 15 43  1  0
 15 44  1  0
 17 45  1  0
 18 46  1  0
 20 47  1  0
 20 48  1  0
 21 49  1  0
 21 50  1  0
 25 51  1  0
 26 52  1  0
M  END
>  <meeko>  (5) 
{"is_sidechain": [false], "free_energy": -6.129, "intermolecular_energy": -10.764, "internal_energy": -1.682}

$$$$
CHEMBL327690_10048142_out
     RDKit          3D

 52 53  0  0  0  0  0  0  0  0999 V2000
   28.4120   76.7170   21.2680 O   0  0  0  0  0  0  0  0  0  0  0  0
   29.2480   77.5650   21.5540 C   0  0  0  0  0  0  0  0  0  0  0  0
   30.2820   77.4120   22.6450 C   0  0  0  0  0  0  0  0  0  0  0  0
   31.2860   76.2920   22.3650 C   0  0  0  0  0  0  0  0  0  0  0  0
   30.7770   74.8920   22.7390 C   0  0  0  0  0  0  0  0  0  0  0  0
   30.6870   73.9280   21.5840 C   0  0  0  0  0  0  0  0  0  0  0  0
   31.5930   74.0190   20.5270 C   0  0  0  0  0  0  0  0  0  0  0  0
   31.5090   73.1260   19.4580 C   0  0  0  0  0  0  0  0  0  0  0  0
   30.5190   72.1440   19.4460 C   0  0  0  0  0  0  0  0  0  0  0  0
   30.4350   71.2420   18.3650 N   0  0  0  0  0  0  0  0  0  0  0  0
   31.3940   70.1610   18.2340 C   0  0  0  0  0  0  0  0  0  0  0  0
   30.6910   68.8270   18.0510 C   0  0  0  0  0  0  0  0  0  0  0  0
   31.0650   67.7060   19.3830 Cl  0  0  0  0  0  0  0  0  0  0  0  0
   29.3830   71.3740   17.3780 C   0  0  0  0  0  0  0  0  0  0  0  0
   29.9430   71.8330   16.0400 C   0  0  0  0  0  0  0  0  0  0  0  0
   29.5850   70.6600   14.7490 Cl  0  0  0  0  0  0  0  0  0  0  0  0
   29.6140   72.0530   20.5030 C   0  0  0  0  0  0  0  0  0  0  0  0
   29.6970   72.9450   21.5720 C   0  0  0  0  0  0  0  0  0  0  0  0
   29.3740   78.7920   20.9710 O   0  0  0  0  0  0  0  0  0  0  0  0
   29.4790   78.7890   19.5430 C   0  0  0  0  0  0  0  0  0  0  0  0
   30.7640   79.4820   19.1300 C   0  0  0  0  0  0  0  0  0  0  0  0
   31.9170   78.6760   19.4270 N   0  0  0  0  0  0  0  0  0  0  0  0
   32.8710   78.9820   20.3710 C   0  0  0  0  0  0  0  0  0  0  0  0
   32.9410   79.9480   21.1120 O   0  0  0  0  0  0  0  0  0  0  0  0
   33.8580   77.8920   20.3420 C   0  0  0  0  0  0  0  0  0  0  0  0
   33.4770   77.0080   19.4180 C   0  0  0  0  0  0  0  0  0  0  0  0
   32.2270   77.4870   18.8090 C   0  0  0  0  0  0  0  0  0  0  0  0
   31.6300   76.8940   17.9250 O   0  0  0  0  0  0  0  0  0  0  0  0
   30.8321   78.3596   22.7418 H   0  0  0  0  0  0  0  0  0  0  0  0
   29.7475   77.1507   23.5703 H   0  0  0  0  0  0  0  0  0  0  0  0
   31.5221   76.2991   21.2907 H   0  0  0  0  0  0  0  0  0  0  0  0
   32.1677   76.4893   22.9925 H   0  0  0  0  0  0  0  0  0  0  0  0
   31.4612   74.4670   23.4882 H   0  0  0  0  0  0  0  0  0  0  0  0
   29.7520   75.0233   23.1161 H   0  0  0  0  0  0  0  0  0  0  0  0
   32.3732   74.7943   20.5363 H   0  0  0  0  0  0  0  0  0  0  0  0
   32.2237   73.1967   18.6248 H   0  0  0  0  0  0  0  0  0  0  0  0
   32.0345   70.3526   17.3605 H   0  0  0  0  0  0  0  0  0  0  0  0
   31.9974   70.1154   19.1526 H   0  0  0  0  0  0  0  0  0  0  0  0
   29.6046   68.9964   18.0205 H   0  0  0  0  0  0  0  0  0  0  0  0
   31.0430   68.3768   17.1111 H   0  0  0  0  0  0  0  0  0  0  0  0
   28.8897   70.3997   17.2460 H   0  0  0  0  0  0  0  0  0  0  0  0
   28.6632   72.1264   17.7325 H   0  0  0  0  0  0  0  0  0  0  0  0
   29.4938   72.8022   15.7776 H   0  0  0  0  0  0  0  0  0  0  0  0
   31.0354   71.9217   16.1340 H   0  0  0  0  0  0  0  0  0  0  0  0
   28.8342   71.2773   20.4937 H   0  0  0  0  0  0  0  0  0  0  0  0
   28.9823   72.8735   22.4052 H   0  0  0  0  0  0  0  0  0  0  0  0
   29.4881   77.7514   19.1780 H   0  0  0  0  0  0  0  0  0  0  0  0
   28.6192   79.3217   19.1105 H   0  0  0  0  0  0  0  0  0  0  0  0
   30.7332   79.6765   18.0478 H   0  0  0  0  0  0  0  0  0  0  0  0
   30.8457   80.4223   19.6950 H   0  0  0  0  0  0  0  0  0  0  0  0
   34.7557   77.8182   20.9734 H   0  0  0  0  0  0  0  0  0  0  0  0
   34.0069   76.0802   19.1566 H   0  0  0  0  0  0  0  0  0  0  0  0
  1  2  2  0
  2  3  1  0
  3  4  1  0
  4  5  1  0
  5  6  1  0
  6  7  1  0
  7  8  2  0
  8  9  1  0
  9 10  1  0
 10 11  1  0
 11 12  1  0
 12 13  1  0
 10 14  1  0
 14 15  1  0
 15 16  1  0
  9 17  2  0
 17 18  1  0
  2 19  1  0
 19 20  1  0
 20 21  1  0
 21 22  1  0
 22 23  1  0
 23 24  2  0
 23 25  1  0
 25 26  2  0
 26 27  1  0
 27 28  2  0
 18  6  2  0
 27 22  1  0
  3 29  1  0
  3 30  1  0
  4 31  1  0
  4 32  1  0
  5 33  1  0
  5 34  1  0
  7 35  1  0
  8 36  1  0
 11 37  1  0
 11 38  1  0
 12 39  1  0
 12 40  1  0
 14 41  1  0
 14 42  1  0
 15 43  1  0
 15 44  1  0
 17 45  1  0
 18 46  1  0
 20 47  1  0
 20 48  1  0
 21 49  1  0
 21 50  1  0
 25 51  1  0
 26 52  1  0
M  END
>  <meeko>  (6) 
{"is_sidechain": [false], "free_energy": -6.075, "intermolecular_energy": -10.46, "internal_energy": -1.89}

$$$$
CHEMBL327690_10048142_out
     RDKit          3D

 52 53  0  0  0  0  0  0  0  0999 V2000
   29.4660   71.6590   15.3380 O   0  0  0  0  0  0  0  0  0  0  0  0
   29.1770   70.4790   15.4960 C   0  0  0  0  0  0  0  0  0  0  0  0
   28.6010   69.9030   16.7690 C   0  0  0  0  0  0  0  0  0  0  0  0
   28.7800   70.8260   17.9770 C   0  0  0  0  0  0  0  0  0  0  0  0
   30.0670   70.5660   18.7730 C   0  0  0  0  0  0  0  0  0  0  0  0
   30.7570   71.8090   19.2740 C   0  0  0  0  0  0  0  0  0  0  0  0
   31.9030   72.2770   18.6320 C   0  0  0  0  0  0  0  0  0  0  0  0
   32.5410   73.4280   19.0950 C   0  0  0  0  0  0  0  0  0  0  0  0
   32.0330   74.1100   20.2000 C   0  0  0  0  0  0  0  0  0  0  0  0
   32.6790   75.2740   20.6680 N   0  0  0  0  0  0  0  0  0  0  0  0
   33.0580   76.3240   19.7420 C   0  0  0  0  0  0  0  0  0  0  0  0
   31.8410   76.8820   19.0230 C   0  0  0  0  0  0  0  0  0  0  0  0
   31.9120   76.5570   17.2740 Cl  0  0  0  0  0  0  0  0  0  0  0  0
   32.9600   75.4410   22.0790 C   0  0  0  0  0  0  0  0  0  0  0  0
   32.4820   76.7980   22.5740 C   0  0  0  0  0  0  0  0  0  0  0  0
   30.7050   76.9080   22.5520 Cl  0  0  0  0  0  0  0  0  0  0  0  0
   30.8870   73.6420   20.8420 C   0  0  0  0  0  0  0  0  0  0  0  0
   30.2480   72.4920   20.3800 C   0  0  0  0  0  0  0  0  0  0  0  0
   29.3500   69.4830   14.5790 O   0  0  0  0  0  0  0  0  0  0  0  0
   29.4840   68.1650   15.1180 C   0  0  0  0  0  0  0  0  0  0  0  0
   30.8840   67.6470   14.8450 C   0  0  0  0  0  0  0  0  0  0  0  0
   31.8620   68.3160   15.6590 N   0  0  0  0  0  0  0  0  0  0  0  0
   32.6870   69.3290   15.2260 C   0  0  0  0  0  0  0  0  0  0  0  0
   32.7650   69.8440   14.1240 O   0  0  0  0  0  0  0  0  0  0  0  0
   33.5170   69.7160   16.3770 C   0  0  0  0  0  0  0  0  0  0  0  0
   33.1740   68.9530   17.4160 C   0  0  0  0  0  0  0  0  0  0  0  0
   32.1080   68.0370   16.9830 C   0  0  0  0  0  0  0  0  0  0  0  0
   31.5850   67.2090   17.7110 O   0  0  0  0  0  0  0  0  0  0  0  0
   27.5257   69.7265   16.6189 H   0  0  0  0  0  0  0  0  0  0  0  0
   29.1438   68.9706   16.9837 H   0  0  0  0  0  0  0  0  0  0  0  0
   28.7984   71.8658   17.6187 H   0  0  0  0  0  0  0  0  0  0  0  0
   27.9384   70.6287   18.6572 H   0  0  0  0  0  0  0  0  0  0  0  0
   29.8127   69.9410   19.6417 H   0  0  0  0  0  0  0  0  0  0  0  0
   30.7685   70.0777   18.0806 H   0  0  0  0  0  0  0  0  0  0  0  0
   32.3039   71.7387   17.7605 H   0  0  0  0  0  0  0  0  0  0  0  0
   33.4448   73.7975   18.5884 H   0  0  0  0  0  0  0  0  0  0  0  0
   33.5496   77.1349   20.2994 H   0  0  0  0  0  0  0  0  0  0  0  0
   33.7434   75.9001   18.9933 H   0  0  0  0  0  0  0  0  0  0  0  0
   30.9355   76.4146   19.4371 H   0  0  0  0  0  0  0  0  0  0  0  0
   31.8215   77.9718   19.1715 H   0  0  0  0  0  0  0  0  0  0  0  0
   32.4450   74.6502   22.6443 H   0  0  0  0  0  0  0  0  0  0  0  0
   34.0478   75.3767   22.2294 H   0  0  0  0  0  0  0  0  0  0  0  0
   32.8372   76.9487   23.6041 H   0  0  0  0  0  0  0  0  0  0  0  0
   32.8853   77.5724   21.9050 H   0  0  0  0  0  0  0  0  0  0  0  0
   30.4867   74.1805   21.7137 H   0  0  0  0  0  0  0  0  0  0  0  0
   29.3438   72.1234   20.8865 H   0  0  0  0  0  0  0  0  0  0  0  0
   29.3086   68.1932   16.2036 H   0  0  0  0  0  0  0  0  0  0  0  0
   28.7477   67.4987   14.6449 H   0  0  0  0  0  0  0  0  0  0  0  0
   30.9149   66.5692   15.0626 H   0  0  0  0  0  0  0  0  0  0  0  0
   31.1235   67.8407   13.7890 H   0  0  0  0  0  0  0  0  0  0  0  0
   34.2884   70.5002   16.3804 H   0  0  0  0  0  0  0  0  0  0  0  0
   33.6130   69.0007   18.4235 H   0  0  0  0  0  0  0  0  0  0  0  0
  1  2  2  0
  2  3  1  0
  3  4  1  0
  4  5  1  0
  5  6  1  0
  6  7  1  0
  7  8  2  0
  8  9  1  0
  9 10  1  0
 10 11  1  0
 11 12  1  0
 12 13  1  0
 10 14  1  0
 14 15  1  0
 15 16  1  0
  9 17  2  0
 17 18  1  0
  2 19  1  0
 19 20  1  0
 20 21  1  0
 21 22  1  0
 22 23  1  0
 23 24  2  0
 23 25  1  0
 25 26  2  0
 26 27  1  0
 27 28  2  0
 18  6  2  0
 27 22  1  0
  3 29  1  0
  3 30  1  0
  4 31  1  0
  4 32  1  0
  5 33  1  0
  5 34  1  0
  7 35  1  0
  8 36  1  0
 11 37  1  0
 11 38  1  0
 12 39  1  0
 12 40  1  0
 14 41  1  0
 14 42  1  0
 15 43  1  0
 15 44  1  0
 17 45  1  0
 18 46  1  0
 20 47  1  0
 20 48  1  0
 21 49  1  0
 21 50  1  0
 25 51  1  0
 26 52  1  0
M  END
>  <meeko>  (7) 
{"is_sidechain": [false], "free_energy": -6.069, "intermolecular_energy": -10.29, "internal_energy": -2.051}

$$$$
CHEMBL327690_10048142_out
     RDKit          3D

 52 53  0  0  0  0  0  0  0  0999 V2000
   31.0630   66.1640   15.6090 O   0  0  0  0  0  0  0  0  0  0  0  0
   31.0240   67.3790   15.4600 C   0  0  0  0  0  0  0  0  0  0  0  0
   29.8180   68.2380   15.7640 C   0  0  0  0  0  0  0  0  0  0  0  0
   30.0250   69.1510   16.9750 C   0  0  0  0  0  0  0  0  0  0  0  0
   28.8680   70.1310   17.2210 C   0  0  0  0  0  0  0  0  0  0  0  0
   29.2190   71.3100   18.0910 C   0  0  0  0  0  0  0  0  0  0  0  0
   28.9330   72.6050   17.6590 C   0  0  0  0  0  0  0  0  0  0  0  0
   29.2580   73.6970   18.4660 C   0  0  0  0  0  0  0  0  0  0  0  0
   29.8690   73.4930   19.7030 C   0  0  0  0  0  0  0  0  0  0  0  0
   30.1980   74.5970   20.5170 N   0  0  0  0  0  0  0  0  0  0  0  0
   29.7670   75.9330   20.1490 C   0  0  0  0  0  0  0  0  0  0  0  0
   28.6000   76.3860   21.0110 C   0  0  0  0  0  0  0  0  0  0  0  0
   28.8500   78.0370   21.6290 Cl  0  0  0  0  0  0  0  0  0  0  0  0
   30.9560   74.4110   21.7370 C   0  0  0  0  0  0  0  0  0  0  0  0
   32.2740   75.1680   21.6810 C   0  0  0  0  0  0  0  0  0  0  0  0
   33.1360   74.8600   20.1530 Cl  0  0  0  0  0  0  0  0  0  0  0  0
   30.1550   72.1980   20.1340 C   0  0  0  0  0  0  0  0  0  0  0  0
   29.8310   71.1060   19.3290 C   0  0  0  0  0  0  0  0  0  0  0  0
   32.0310   68.1580   14.9710 O   0  0  0  0  0  0  0  0  0  0  0  0
   33.2620   68.1030   15.6980 C   0  0  0  0  0  0  0  0  0  0  0  0
   34.0560   69.3720   15.4450 C   0  0  0  0  0  0  0  0  0  0  0  0
   33.6110   70.4490   16.2880 N   0  0  0  0  0  0  0  0  0  0  0  0
   34.0200   70.6540   17.5850 C   0  0  0  0  0  0  0  0  0  0  0  0
   34.7980   70.0040   18.2620 O   0  0  0  0  0  0  0  0  0  0  0  0
   33.3230   71.8600   18.0600 C   0  0  0  0  0  0  0  0  0  0  0  0
   32.5530   72.3150   17.0710 C   0  0  0  0  0  0  0  0  0  0  0  0
   32.7160   71.4230   15.9120 C   0  0  0  0  0  0  0  0  0  0  0  0
   32.1360   71.5760   14.8500 O   0  0  0  0  0  0  0  0  0  0  0  0
   29.6030   68.8641   14.8855 H   0  0  0  0  0  0  0  0  0  0  0  0
   28.9831   67.5619   16.0001 H   0  0  0  0  0  0  0  0  0  0  0  0
   30.1403   68.5201   17.8687 H   0  0  0  0  0  0  0  0  0  0  0  0
   30.9188   69.7579   16.7681 H   0  0  0  0  0  0  0  0  0  0  0  0
   28.5285   70.5125   16.2467 H   0  0  0  0  0  0  0  0  0  0  0  0
   28.0910   69.5675   17.7582 H   0  0  0  0  0  0  0  0  0  0  0  0
   28.4517   72.7659   16.6831 H   0  0  0  0  0  0  0  0  0  0  0  0
   29.0321   74.7185   18.1261 H   0  0  0  0  0  0  0  0  0  0  0  0
   30.6060   76.6315   20.2837 H   0  0  0  0  0  0  0  0  0  0  0  0
   29.4418   75.9192   19.0983 H   0  0  0  0  0  0  0  0  0  0  0  0
   27.6804   76.3653   20.4077 H   0  0  0  0  0  0  0  0  0  0  0  0
   28.5193   75.7037   21.8700 H   0  0  0  0  0  0  0  0  0  0  0  0
   30.3647   74.7808   22.5877 H   0  0  0  0  0  0  0  0  0  0  0  0
   31.1725   73.3390   21.8549 H   0  0  0  0  0  0  0  0  0  0  0  0
   32.0716   76.2458   21.7668 H   0  0  0  0  0  0  0  0  0  0  0  0
   32.9072   74.8224   22.5114 H   0  0  0  0  0  0  0  0  0  0  0  0
   30.6366   72.0375   21.1098 H   0  0  0  0  0  0  0  0  0  0  0  0
   30.0575   70.0848   19.6694 H   0  0  0  0  0  0  0  0  0  0  0  0
   33.0491   68.0119   16.7733 H   0  0  0  0  0  0  0  0  0  0  0  0
   33.8461   67.2324   15.3650 H   0  0  0  0  0  0  0  0  0  0  0  0
   35.1190   69.1750   15.6480 H   0  0  0  0  0  0  0  0  0  0  0  0
   33.9062   69.6697   14.3967 H   0  0  0  0  0  0  0  0  0  0  0  0
   33.4205   72.3090   19.0594 H   0  0  0  0  0  0  0  0  0  0  0  0
   31.9070   73.2043   17.1141 H   0  0  0  0  0  0  0  0  0  0  0  0
  1  2  2  0
  2  3  1  0
  3  4  1  0
  4  5  1  0
  5  6  1  0
  6  7  1  0
  7  8  2  0
  8  9  1  0
  9 10  1  0
 10 11  1  0
 11 12  1  0
 12 13  1  0
 10 14  1  0
 14 15  1  0
 15 16  1  0
  9 17  2  0
 17 18  1  0
  2 19  1  0
 19 20  1  0
 20 21  1  0
 21 22  1  0
 22 23  1  0
 23 24  2  0
 23 25  1  0
 25 26  2  0
 26 27  1  0
 27 28  2  0
 18  6  2  0
 27 22  1  0
  3 29  1  0
  3 30  1  0
  4 31  1  0
  4 32  1  0
  5 33  1  0
  5 34  1  0
  7 35  1  0
  8 36  1  0
 11 37  1  0
 11 38  1  0
 12 39  1  0
 12 40  1  0
 14 41  1  0
 14 42  1  0
 15 43  1  0
 15 44  1  0
 17 45  1  0
 18 46  1  0
 20 47  1  0
 20 48  1  0
 21 49  1  0
 21 50  1  0
 25 51  1  0
 26 52  1  0
M  END
>  <meeko>  (8) 
{"is_sidechain": [false], "free_energy": -6.061, "intermolecular_energy": -9.964, "internal_energy": -2.363}

$$$$
CHEMBL327690_10048142_out
     RDKit          3D

 52 53  0  0  0  0  0  0  0  0999 V2000
   30.3380   71.0540   14.1110 O   0  0  0  0  0  0  0  0  0  0  0  0
   30.5090   69.8830   14.4260 C   0  0  0  0  0  0  0  0  0  0  0  0
   29.5370   69.0680   15.2480 C   0  0  0  0  0  0  0  0  0  0  0  0
   28.7820   69.9050   16.2840 C   0  0  0  0  0  0  0  0  0  0  0  0
   29.4080   69.8730   17.6860 C   0  0  0  0  0  0  0  0  0  0  0  0
   29.7880   71.2240   18.2340 C   0  0  0  0  0  0  0  0  0  0  0  0
   30.1740   71.3520   19.5680 C   0  0  0  0  0  0  0  0  0  0  0  0
   30.5260   72.6030   20.0760 C   0  0  0  0  0  0  0  0  0  0  0  0
   30.4920   73.7260   19.2490 C   0  0  0  0  0  0  0  0  0  0  0  0
   30.8480   74.9900   19.7630 N   0  0  0  0  0  0  0  0  0  0  0  0
   31.9890   75.1270   20.6480 C   0  0  0  0  0  0  0  0  0  0  0  0
   32.9790   76.1470   20.1090 C   0  0  0  0  0  0  0  0  0  0  0  0
   34.0890   75.4140   18.9260 Cl  0  0  0  0  0  0  0  0  0  0  0  0
   30.0890   76.1700   19.4030 C   0  0  0  0  0  0  0  0  0  0  0  0
   29.2250   76.6380   20.5640 C   0  0  0  0  0  0  0  0  0  0  0  0
   27.8090   75.5810   20.7890 Cl  0  0  0  0  0  0  0  0  0  0  0  0
   30.1060   73.5980   17.9150 C   0  0  0  0  0  0  0  0  0  0  0  0
   29.7540   72.3470   17.4070 C   0  0  0  0  0  0  0  0  0  0  0  0
   31.6030   69.1250   14.1250 O   0  0  0  0  0  0  0  0  0  0  0  0
   32.2850   68.5530   15.2450 C   0  0  0  0  0  0  0  0  0  0  0  0
   33.6560   69.1880   15.3800 C   0  0  0  0  0  0  0  0  0  0  0  0
   33.6100   70.3780   16.1870 N   0  0  0  0  0  0  0  0  0  0  0  0
   33.5990   70.3970   17.5620 C   0  0  0  0  0  0  0  0  0  0  0  0
   33.6220   69.4640   18.3470 O   0  0  0  0  0  0  0  0  0  0  0  0
   33.5510   71.8110   17.9640 C   0  0  0  0  0  0  0  0  0  0  0  0
   33.5340   72.5590   16.8600 C   0  0  0  0  0  0  0  0  0  0  0  0
   33.5700   71.6610   15.6940 C   0  0  0  0  0  0  0  0  0  0  0  0
   33.5610   72.0490   14.5380 O   0  0  0  0  0  0  0  0  0  0  0  0
   28.8048   68.6063   14.5692 H   0  0  0  0  0  0  0  0  0  0  0  0
   30.1208   68.3139   15.7961 H   0  0  0  0  0  0  0  0  0  0  0  0
   28.7616   70.9488   15.9376 H   0  0  0  0  0  0  0  0  0  0  0  0
   27.7757   69.4700   16.3738 H   0  0  0  0  0  0  0  0  0  0  0  0
   28.6833   69.4147   18.3750 H   0  0  0  0  0  0  0  0  0  0  0  0
   30.3419   69.2985   17.5975 H   0  0  0  0  0  0  0  0  0  0  0  0
   30.2010   70.4664   20.2200 H   0  0  0  0  0  0  0  0  0  0  0  0
   30.8302   72.7037   21.1283 H   0  0  0  0  0  0  0  0  0  0  0  0
   31.6387   75.4544   21.6380 H   0  0  0  0  0  0  0  0  0  0  0  0
   32.4948   74.1528   20.7201 H   0  0  0  0  0  0  0  0  0  0  0  0
   32.4235   76.9616   19.6213 H   0  0  0  0  0  0  0  0  0  0  0  0
   33.5744   76.5295   20.9511 H   0  0  0  0  0  0  0  0  0  0  0  0
   30.7856   76.9749   19.1257 H   0  0  0  0  0  0  0  0  0  0  0  0
   29.4326   75.9196   18.5566 H   0  0  0  0  0  0  0  0  0  0  0  0
   29.8274   76.6297   21.4843 H   0  0  0  0  0  0  0  0  0  0  0  0
   28.8664   77.6537   20.3408 H   0  0  0  0  0  0  0  0  0  0  0  0
   30.0790   74.4836   17.2631 H   0  0  0  0  0  0  0  0  0  0  0  0
   29.4498   72.2463   16.3547 H   0  0  0  0  0  0  0  0  0  0  0  0
   31.7041   68.7365   16.1609 H   0  0  0  0  0  0  0  0  0  0  0  0
   32.3961   67.4693   15.0924 H   0  0  0  0  0  0  0  0  0  0  0  0
   34.3400   68.4650   15.8484 H   0  0  0  0  0  0  0  0  0  0  0  0
   34.0073   69.4663   14.3754 H   0  0  0  0  0  0  0  0  0  0  0  0
   33.5323   72.1869   18.9976 H   0  0  0  0  0  0  0  0  0  0  0  0
   33.4991   73.6579   16.8264 H   0  0  0  0  0  0  0  0  0  0  0  0
  1  2  2  0
  2  3  1  0
  3  4  1  0
  4  5  1  0
  5  6  1  0
  6  7  1  0
  7  8  2  0
  8  9  1  0
  9 10  1  0
 10 11  1  0
 11 12  1  0
 12 13  1  0
 10 14  1  0
 14 15  1  0
 15 16  1  0
  9 17  2  0
 17 18  1  0
  2 19  1  0
 19 20  1  0
 20 21  1  0
 21 22  1  0
 22 23  1  0
 23 24  2  0
 23 25  1  0
 25 26  2  0
 26 27  1  0
 27 28  2  0
 18  6  2  0
 27 22  1  0
  3 29  1  0
  3 30  1  0
  4 31  1  0
  4 32  1  0
  5 33  1  0
  5 34  1  0
  7 35  1  0
  8 36  1  0
 11 37  1  0
 11 38  1  0
 12 39  1  0
 12 40  1  0
 14 41  1  0
 14 42  1  0
 15 43  1  0
 15 44  1  0
 17 45  1  0
 18 46  1  0
 20 47  1  0
 20 48  1  0
 21 49  1  0
 21 50  1  0
 25 51  1  0
 26 52  1  0
M  END
>  <meeko>  (9) 
{"is_sidechain": [false], "free_energy": -5.991, "intermolecular_energy": -9.468, "internal_energy": -2.735}

$$$$
