N-1H-indazol-5-yl-2-(6-methylpyridin-2-yl)quinazolin-4-amine_9998128_out
     RDKit          3D

 43 47  0  0  0  0  0  0  0  0999 V2000
   28.1350   66.8860   23.0130 C   0  0  0  0  0  0  0  0  0  0  0  0
   29.2240   66.8570   21.9930 C   0  0  0  0  0  0  0  0  0  0  0  0
   30.2500   65.9350   22.1210 C   0  0  0  0  0  0  0  0  0  0  0  0
   31.2500   65.9360   21.1530 C   0  0  0  0  0  0  0  0  0  0  0  0
   31.1920   66.8450   20.1030 C   0  0  0  0  0  0  0  0  0  0  0  0
   30.1230   67.7290   20.0630 C   0  0  0  0  0  0  0  0  0  0  0  0
   29.9980   68.6980   19.0060 C   0  0  0  0  0  0  0  0  0  0  0  0
   29.9790   69.9880   19.3760 N   0  0  0  0  0  0  0  0  0  0  0  0
   29.8610   70.8620   18.3590 C   0  0  0  0  0  0  0  0  0  0  0  0
   29.8370   72.2380   18.6990 N   0  0  0  0  0  0  0  0  0  0  0  0
   30.7730   73.0740   19.3270 C   0  0  0  0  0  0  0  0  0  0  0  0
   31.9650   73.4070   18.6710 C   0  0  0  0  0  0  0  0  0  0  0  0
   32.9190   74.2380   19.2660 C   0  0  0  0  0  0  0  0  0  0  0  0
   32.6300   74.7220   20.5440 C   0  0  0  0  0  0  0  0  0  0  0  0
   33.3310   75.5380   21.3890 N   0  0  0  0  0  0  0  0  0  0  0  0
   32.7140   75.7830   22.5570 N   0  0  0  0  0  0  0  0  0  0  0  0
   31.5740   75.0960   22.4530 C   0  0  0  0  0  0  0  0  0  0  0  0
   31.4570   74.4120   21.2240 C   0  0  0  0  0  0  0  0  0  0  0  0
   30.5080   73.5750   20.6130 C   0  0  0  0  0  0  0  0  0  0  0  0
   29.7650   70.4890   17.0200 C   0  0  0  0  0  0  0  0  0  0  0  0
   29.6430   71.4210   15.9750 C   0  0  0  0  0  0  0  0  0  0  0  0
   29.5510   70.9810   14.6590 C   0  0  0  0  0  0  0  0  0  0  0  0
   29.5810   69.6170   14.3870 C   0  0  0  0  0  0  0  0  0  0  0  0
   29.7030   68.6970   15.4320 C   0  0  0  0  0  0  0  0  0  0  0  0
   29.7970   69.1100   16.7590 C   0  0  0  0  0  0  0  0  0  0  0  0
   29.9130   68.2100   17.7520 N   0  0  0  0  0  0  0  0  0  0  0  0
   29.1350   67.7560   20.9870 N   0  0  0  0  0  0  0  0  0  0  0  0
   28.5760   66.8743   24.0207 H   0  0  0  0  0  0  0  0  0  0  0  0
   27.5371   67.8004   22.8851 H   0  0  0  0  0  0  0  0  0  0  0  0
   27.4892   66.0047   22.8851 H   0  0  0  0  0  0  0  0  0  0  0  0
   30.2736   65.2249   22.9608 H   0  0  0  0  0  0  0  0  0  0  0  0
   32.0828   65.2204   21.2186 H   0  0  0  0  0  0  0  0  0  0  0  0
   31.9708   66.8631   19.3264 H   0  0  0  0  0  0  0  0  0  0  0  0
   28.9640   72.7150   18.4360 H   0  0  0  0  0  0  0  0  0  0  0  0
   32.1548   73.0055   17.6646 H   0  0  0  0  0  0  0  0  0  0  0  0
   33.8552   74.4990   18.7508 H   0  0  0  0  0  0  0  0  0  0  0  0
   34.2540   75.9310   21.1510 H   0  0  0  0  0  0  0  0  0  0  0  0
   30.8074   75.0662   23.2413 H   0  0  0  0  0  0  0  0  0  0  0  0
   29.5735   73.3163   21.1325 H   0  0  0  0  0  0  0  0  0  0  0  0
   29.6203   72.4979   16.1980 H   0  0  0  0  0  0  0  0  0  0  0  0
   29.4551   71.7070   13.8382 H   0  0  0  0  0  0  0  0  0  0  0  0
   29.5086   69.2622   13.3483 H   0  0  0  0  0  0  0  0  0  0  0  0
   29.7253   67.6217   15.2012 H   0  0  0  0  0  0  0  0  0  0  0  0
  1  2  1  0
  2  3  2  0
  3  4  1  0
  4  5  2  0
  5  6  1  0
  6  7  1  0
  7  8  2  0
  8  9  1  0
  9 10  1  0
 10 11  1  0
 11 12  2  0
 12 13  1  0
 13 14  2  0
 14 15  1  0
 15 16  1  0
 16 17  2  0
 17 18  1  0
 18 19  2  0
  9 20  2  0
 20 21  1  0
 21 22  2  0
 22 23  1  0
 23 24  2  0
 24 25  1  0
 25 26  2  0
  6 27  2  0
 27  2  1  0
 26  7  1  0
 19 11  1  0
 25 20  1  0
 18 14  1  0
  1 28  1  0
  1 29  1  0
  1 30  1  0
  3 31  1  0
  4 32  1  0
  5 33  1  0
 10 34  1  0
 12 35  1  0
 13 36  1  0
 15 37  1  0
 17 38  1  0
 19 39  1  0
 21 40  1  0
 22 41  1  0
 23 42  1  0
 24 43  1  0
M  END
>  <meeko>  (1) 
{"is_sidechain": [false], "free_energy": -8.269, "intermolecular_energy": -9.719, "internal_energy": -0.874}

$$$$
N-1H-indazol-5-yl-2-(6-methylpyridin-2-yl)quinazolin-4-amine_9998128_out
     RDKit          3D

 43 47  0  0  0  0  0  0  0  0999 V2000
   32.0740   75.5340   22.3480 C   0  0  0  0  0  0  0  0  0  0  0  0
   31.0260   74.5240   22.0190 C   0  0  0  0  0  0  0  0  0  0  0  0
   30.1410   74.1180   23.0040 C   0  0  0  0  0  0  0  0  0  0  0  0
   29.1770   73.1740   22.6630 C   0  0  0  0  0  0  0  0  0  0  0  0
   29.1290   72.6740   21.3670 C   0  0  0  0  0  0  0  0  0  0  0  0
   30.0600   73.1440   20.4520 C   0  0  0  0  0  0  0  0  0  0  0  0
   30.0710   72.6710   19.0920 C   0  0  0  0  0  0  0  0  0  0  0  0
   30.7540   73.4120   18.2050 N   0  0  0  0  0  0  0  0  0  0  0  0
   30.7400   72.9360   16.9460 C   0  0  0  0  0  0  0  0  0  0  0  0
   31.4480   73.6840   15.9740 N   0  0  0  0  0  0  0  0  0  0  0  0
   31.1950   74.9220   15.3620 C   0  0  0  0  0  0  0  0  0  0  0  0
   31.6530   75.1660   14.0610 C   0  0  0  0  0  0  0  0  0  0  0  0
   31.4190   76.3870   13.4210 C   0  0  0  0  0  0  0  0  0  0  0  0
   30.7070   77.3520   14.1380 C   0  0  0  0  0  0  0  0  0  0  0  0
   30.3170   78.6230   13.8130 N   0  0  0  0  0  0  0  0  0  0  0  0
   29.6350   79.2540   14.7840 N   0  0  0  0  0  0  0  0  0  0  0  0
   29.5890   78.3500   15.7660 C   0  0  0  0  0  0  0  0  0  0  0  0
   30.2370   77.1430   15.4300 C   0  0  0  0  0  0  0  0  0  0  0  0
   30.4810   75.9110   16.0600 C   0  0  0  0  0  0  0  0  0  0  0  0
   30.0800   71.7710   16.5640 C   0  0  0  0  0  0  0  0  0  0  0  0
   30.0790   71.2930   15.2420 C   0  0  0  0  0  0  0  0  0  0  0  0
   29.3990   70.1220   14.9250 C   0  0  0  0  0  0  0  0  0  0  0  0
   28.7220   69.4300   15.9250 C   0  0  0  0  0  0  0  0  0  0  0  0
   28.7270   69.9120   17.2370 C   0  0  0  0  0  0  0  0  0  0  0  0
   29.4000   71.0820   17.5810 C   0  0  0  0  0  0  0  0  0  0  0  0
   29.3940   71.5300   18.8490 N   0  0  0  0  0  0  0  0  0  0  0  0
   31.0100   74.0600   20.7490 N   0  0  0  0  0  0  0  0  0  0  0  0
   32.1669   75.6235   23.4404 H   0  0  0  0  0  0  0  0  0  0  0  0
   33.0371   75.2148   21.9231 H   0  0  0  0  0  0  0  0  0  0  0  0
   31.7906   76.5082   21.9231 H   0  0  0  0  0  0  0  0  0  0  0  0
   30.1982   74.5285   24.0229 H   0  0  0  0  0  0  0  0  0  0  0  0
   28.4556   72.8248   23.4164 H   0  0  0  0  0  0  0  0  0  0  0  0
   28.3752   71.9278   21.0754 H   0  0  0  0  0  0  0  0  0  0  0  0
   32.3150   73.2310   15.6520 H   0  0  0  0  0  0  0  0  0  0  0  0
   32.2094   74.3792   13.5307 H   0  0  0  0  0  0  0  0  0  0  0  0
   31.7791   76.5791   12.3995 H   0  0  0  0  0  0  0  0  0  0  0  0
   30.5270   79.0590   12.9040 H   0  0  0  0  0  0  0  0  0  0  0  0
   29.0979   78.5278   16.7341 H   0  0  0  0  0  0  0  0  0  0  0  0
   30.1194   75.7238   17.0819 H   0  0  0  0  0  0  0  0  0  0  0  0
   30.6166   71.8457   14.4575 H   0  0  0  0  0  0  0  0  0  0  0  0
   29.3962   69.7454   13.8915 H   0  0  0  0  0  0  0  0  0  0  0  0
   28.1824   68.5026   15.6825 H   0  0  0  0  0  0  0  0  0  0  0  0
   28.1868   69.3543   18.0161 H   0  0  0  0  0  0  0  0  0  0  0  0
  1  2  1  0
  2  3  2  0
  3  4  1  0
  4  5  2  0
  5  6  1  0
  6  7  1  0
  7  8  2  0
  8  9  1  0
  9 10  1  0
 10 11  1  0
 11 12  2  0
 12 13  1  0
 13 14  2  0
 14 15  1  0
 15 16  1  0
 16 17  2  0
 17 18  1  0
 18 19  2  0
  9 20  2  0
 20 21  1  0
 21 22  2  0
 22 23  1  0
 23 24  2  0
 24 25  1  0
 25 26  2  0
  6 27  2  0
 27  2  1  0
 26  7  1  0
 19 11  1  0
 25 20  1  0
 18 14  1  0
  1 28  1  0
  1 29  1  0
  1 30  1  0
  3 31  1  0
  4 32  1  0
  5 33  1  0
 10 34  1  0
 12 35  1  0
 13 36  1  0
 15 37  1  0
 17 38  1  0
 19 39  1  0
 21 40  1  0
 22 41  1  0
 23 42  1  0
 24 43  1  0
M  END
>  <meeko>  (2) 
{"is_sidechain": [false], "free_energy": -8.237, "intermolecular_energy": -9.772, "internal_energy": -0.784}

$$$$
N-1H-indazol-5-yl-2-(6-methylpyridin-2-yl)quinazolin-4-amine_9998128_out
     RDKit          3D

 43 47  0  0  0  0  0  0  0  0999 V2000
   29.0980   70.6960   14.7940 C   0  0  0  0  0  0  0  0  0  0  0  0
   29.6650   70.2820   16.1100 C   0  0  0  0  0  0  0  0  0  0  0  0
   29.7170   68.9360   16.4330 C   0  0  0  0  0  0  0  0  0  0  0  0
   30.2500   68.5840   17.6690 C   0  0  0  0  0  0  0  0  0  0  0  0
   30.7100   69.5740   18.5290 C   0  0  0  0  0  0  0  0  0  0  0  0
   30.6150   70.8940   18.1140 C   0  0  0  0  0  0  0  0  0  0  0  0
   31.0700   71.9720   18.9520 C   0  0  0  0  0  0  0  0  0  0  0  0
   32.1880   72.6050   18.5610 N   0  0  0  0  0  0  0  0  0  0  0  0
   32.5800   73.6060   19.3710 C   0  0  0  0  0  0  0  0  0  0  0  0
   33.7540   74.3050   18.9990 N   0  0  0  0  0  0  0  0  0  0  0  0
   34.0000   75.3020   18.0420 C   0  0  0  0  0  0  0  0  0  0  0  0
   33.5360   76.6060   18.2550 C   0  0  0  0  0  0  0  0  0  0  0  0
   33.7630   77.6240   17.3230 C   0  0  0  0  0  0  0  0  0  0  0  0
   34.4750   77.2810   16.1710 C   0  0  0  0  0  0  0  0  0  0  0  0
   34.8600   78.0200   15.0850 N   0  0  0  0  0  0  0  0  0  0  0  0
   35.5440   77.3250   14.1610 N   0  0  0  0  0  0  0  0  0  0  0  0
   35.5970   76.0950   14.6770 C   0  0  0  0  0  0  0  0  0  0  0  0
   34.9510   75.9970   15.9280 C   0  0  0  0  0  0  0  0  0  0  0  0
   34.7140   74.9850   16.8730 C   0  0  0  0  0  0  0  0  0  0  0  0
   31.9010   73.9790   20.5290 C   0  0  0  0  0  0  0  0  0  0  0  0
   32.3300   75.0290   21.3600 C   0  0  0  0  0  0  0  0  0  0  0  0
   31.6070   75.3510   22.5030 C   0  0  0  0  0  0  0  0  0  0  0  0
   30.4600   74.6290   22.8160 C   0  0  0  0  0  0  0  0  0  0  0  0
   30.0400   73.5860   21.9840 C   0  0  0  0  0  0  0  0  0  0  0  0
   30.7450   73.2430   20.8340 C   0  0  0  0  0  0  0  0  0  0  0  0
   30.3260   72.2370   20.0460 N   0  0  0  0  0  0  0  0  0  0  0  0
   30.1020   71.2720   16.9210 N   0  0  0  0  0  0  0  0  0  0  0  0
   28.2196   71.3374   14.9586 H   0  0  0  0  0  0  0  0  0  0  0  0
   29.8577   71.2533   14.2264 H   0  0  0  0  0  0  0  0  0  0  0  0
   28.7985   69.8026   14.2264 H   0  0  0  0  0  0  0  0  0  0  0  0
   29.3487   68.1700   15.7347 H   0  0  0  0  0  0  0  0  0  0  0  0
   30.3071   67.5260   17.9644 H   0  0  0  0  0  0  0  0  0  0  0  0
   31.1369   69.3182   19.5100 H   0  0  0  0  0  0  0  0  0  0  0  0
   34.5900   74.0270   19.5340 H   0  0  0  0  0  0  0  0  0  0  0  0
   32.9803   76.8349   19.1763 H   0  0  0  0  0  0  0  0  0  0  0  0
   33.3975   78.6481   17.4895 H   0  0  0  0  0  0  0  0  0  0  0  0
   34.6440   79.0220   14.9850 H   0  0  0  0  0  0  0  0  0  0  0  0
   36.0917   75.2476   14.1799 H   0  0  0  0  0  0  0  0  0  0  0  0
   35.0807   73.9622   16.7014 H   0  0  0  0  0  0  0  0  0  0  0  0
   33.2378   75.5958   21.1057 H   0  0  0  0  0  0  0  0  0  0  0  0
   31.9399   76.1715   23.1557 H   0  0  0  0  0  0  0  0  0  0  0  0
   29.8828   74.8785   23.7185 H   0  0  0  0  0  0  0  0  0  0  0  0
   29.1312   73.0237   22.2447 H   0  0  0  0  0  0  0  0  0  0  0  0
  1  2  1  0
  2  3  2  0
  3  4  1  0
  4  5  2  0
  5  6  1  0
  6  7  1  0
  7  8  2  0
  8  9  1  0
  9 10  1  0
 10 11  1  0
 11 12  2  0
 12 13  1  0
 13 14  2  0
 14 15  1  0
 15 16  1  0
 16 17  2  0
 17 18  1  0
 18 19  2  0
  9 20  2  0
 20 21  1  0
 21 22  2  0
 22 23  1  0
 23 24  2  0
 24 25  1  0
 25 26  2  0
  6 27  2  0
 27  2  1  0
 26  7  1  0
 19 11  1  0
 25 20  1  0
 18 14  1  0
  1 28  1  0
  1 29  1  0
  1 30  1  0
  3 31  1  0
  4 32  1  0
  5 33  1  0
 10 34  1  0
 12 35  1  0
 13 36  1  0
 15 37  1  0
 17 38  1  0
 19 39  1  0
 21 40  1  0
 22 41  1  0
 23 42  1  0
 24 43  1  0
M  END
>  <meeko>  (3) 
{"is_sidechain": [false], "free_energy": -8.182, "intermolecular_energy": -9.621, "internal_energy": -0.87}

$$$$
N-1H-indazol-5-yl-2-(6-methylpyridin-2-yl)quinazolin-4-amine_9998128_out
     RDKit          3D

 43 47  0  0  0  0  0  0  0  0999 V2000
   30.5940   77.7150   12.5910 C   0  0  0  0  0  0  0  0  0  0  0  0
   31.6010   76.6870   12.9840 C   0  0  0  0  0  0  0  0  0  0  0  0
   32.9060   76.8080   12.5350 C   0  0  0  0  0  0  0  0  0  0  0  0
   33.8190   75.8320   12.9200 C   0  0  0  0  0  0  0  0  0  0  0  0
   33.4060   74.7810   13.7300 C   0  0  0  0  0  0  0  0  0  0  0  0
   32.0770   74.7480   14.1280 C   0  0  0  0  0  0  0  0  0  0  0  0
   31.5770   73.6900   14.9670 C   0  0  0  0  0  0  0  0  0  0  0  0
   32.0520   73.6460   16.2220 N   0  0  0  0  0  0  0  0  0  0  0  0
   31.5610   72.6430   16.9730 C   0  0  0  0  0  0  0  0  0  0  0  0
   32.0320   72.5550   18.3070 N   0  0  0  0  0  0  0  0  0  0  0  0
   31.7760   73.3220   19.4540 C   0  0  0  0  0  0  0  0  0  0  0  0
   30.7640   72.9340   20.3420 C   0  0  0  0  0  0  0  0  0  0  0  0
   30.4820   73.6730   21.4960 C   0  0  0  0  0  0  0  0  0  0  0  0
   31.2540   74.8150   21.7220 C   0  0  0  0  0  0  0  0  0  0  0  0
   31.2380   75.7390   22.7300 N   0  0  0  0  0  0  0  0  0  0  0  0
   32.1520   76.7150   22.5970 N   0  0  0  0  0  0  0  0  0  0  0  0
   32.7750   76.4000   21.4590 C   0  0  0  0  0  0  0  0  0  0  0  0
   32.2660   75.2280   20.8620 C   0  0  0  0  0  0  0  0  0  0  0  0
   32.5370   74.4750   19.7070 C   0  0  0  0  0  0  0  0  0  0  0  0
   30.6330   71.7110   16.5140 C   0  0  0  0  0  0  0  0  0  0  0  0
   30.1350   70.6710   17.3180 C   0  0  0  0  0  0  0  0  0  0  0  0
   29.2090   69.7730   16.7990 C   0  0  0  0  0  0  0  0  0  0  0  0
   28.7830   69.9110   15.4810 C   0  0  0  0  0  0  0  0  0  0  0  0
   29.2840   70.9470   14.6880 C   0  0  0  0  0  0  0  0  0  0  0  0
   30.2110   71.8610   15.1840 C   0  0  0  0  0  0  0  0  0  0  0  0
   30.6830   72.8520   14.4060 N   0  0  0  0  0  0  0  0  0  0  0  0
   31.1620   75.6800   13.7730 N   0  0  0  0  0  0  0  0  0  0  0  0
   30.1553   78.1629   13.4949 H   0  0  0  0  0  0  0  0  0  0  0  0
   31.0837   78.4986   11.9942 H   0  0  0  0  0  0  0  0  0  0  0  0
   29.8005   77.2416   11.9942 H   0  0  0  0  0  0  0  0  0  0  0  0
   33.2103   77.6490   11.8946 H   0  0  0  0  0  0  0  0  0  0  0  0
   34.8648   75.8918   12.5844 H   0  0  0  0  0  0  0  0  0  0  0  0
   34.1115   73.9986   14.0462 H   0  0  0  0  0  0  0  0  0  0  0  0
   32.6910   71.7790   18.4640 H   0  0  0  0  0  0  0  0  0  0  0  0
   30.1782   72.0281   20.1270 H   0  0  0  0  0  0  0  0  0  0  0  0
   29.6881   73.3685   22.1939 H   0  0  0  0  0  0  0  0  0  0  0  0
   30.5820   75.6930   23.5230 H   0  0  0  0  0  0  0  0  0  0  0  0
   33.5981   76.9919   21.0322 H   0  0  0  0  0  0  0  0  0  0  0  0
   33.3322   74.7835   19.0124 H   0  0  0  0  0  0  0  0  0  0  0  0
   30.4780   70.5676   18.3580 H   0  0  0  0  0  0  0  0  0  0  0  0
   28.8157   68.9590   17.4257 H   0  0  0  0  0  0  0  0  0  0  0  0
   28.0513   69.2039   15.0632 H   0  0  0  0  0  0  0  0  0  0  0  0
   28.9384   71.0429   13.6481 H   0  0  0  0  0  0  0  0  0  0  0  0
  1  2  1  0
  2  3  2  0
  3  4  1  0
  4  5  2  0
  5  6  1  0
  6  7  1  0
  7  8  2  0
  8  9  1  0
  9 10  1  0
 10 11  1  0
 11 12  2  0
 12 13  1  0
 13 14  2  0
 14 15  1  0
 15 16  1  0
 16 17  2  0
 17 18  1  0
 18 19  2  0
  9 20  2  0
 20 21  1  0
 21 22  2  0
 22 23  1  0
 23 24  2  0
 24 25  1  0
 25 26  2  0
  6 27  2  0
 27  2  1  0
 26  7  1  0
 19 11  1  0
 25 20  1  0
 18 14  1  0
  1 28  1  0
  1 29  1  0
  1 30  1  0
  3 31  1  0
  4 32  1  0
  5 33  1  0
 10 34  1  0
 12 35  1  0
 13 36  1  0
 15 37  1  0
 17 38  1  0
 19 39  1  0
 21 40  1  0
 22 41  1  0
 23 42  1  0
 24 43  1  0
M  END
>  <meeko>  (4) 
{"is_sidechain": [false], "free_energy": -8.126, "intermolecular_energy": -9.575, "internal_energy": -0.85}

$$$$
N-1H-indazol-5-yl-2-(6-methylpyridin-2-yl)quinazolin-4-amine_9998128_out
     RDKit          3D

 43 47  0  0  0  0  0  0  0  0999 V2000
   29.9700   79.4100   15.2420 C   0  0  0  0  0  0  0  0  0  0  0  0
   30.3850   77.9880   15.0700 C   0  0  0  0  0  0  0  0  0  0  0  0
   30.9780   77.5920   13.8820 C   0  0  0  0  0  0  0  0  0  0  0  0
   31.3520   76.2580   13.7540 C   0  0  0  0  0  0  0  0  0  0  0  0
   31.1260   75.3750   14.8030 C   0  0  0  0  0  0  0  0  0  0  0  0
   30.5260   75.8680   15.9530 C   0  0  0  0  0  0  0  0  0  0  0  0
   30.2610   75.0110   17.0790 C   0  0  0  0  0  0  0  0  0  0  0  0
   29.6610   73.8400   16.8120 N   0  0  0  0  0  0  0  0  0  0  0  0
   29.4300   73.0680   17.8900 C   0  0  0  0  0  0  0  0  0  0  0  0
   28.8000   71.8200   17.6590 N   0  0  0  0  0  0  0  0  0  0  0  0
   29.2770   70.5960   17.1660 C   0  0  0  0  0  0  0  0  0  0  0  0
   29.7620   69.6260   18.0530 C   0  0  0  0  0  0  0  0  0  0  0  0
   30.2440   68.3950   17.5970 C   0  0  0  0  0  0  0  0  0  0  0  0
   30.2180   68.1750   16.2180 C   0  0  0  0  0  0  0  0  0  0  0  0
   30.6050   67.1050   15.4590 N   0  0  0  0  0  0  0  0  0  0  0  0
   30.4210   67.2700   14.1390 N   0  0  0  0  0  0  0  0  0  0  0  0
   29.8960   68.4950   14.0520 C   0  0  0  0  0  0  0  0  0  0  0  0
   29.7420   69.1150   15.3100 C   0  0  0  0  0  0  0  0  0  0  0  0
   29.2620   70.3470   15.7830 C   0  0  0  0  0  0  0  0  0  0  0  0
   29.7750   73.4280   19.1910 C   0  0  0  0  0  0  0  0  0  0  0  0
   29.5230   72.6050   20.3020 C   0  0  0  0  0  0  0  0  0  0  0  0
   29.8920   73.0240   21.5760 C   0  0  0  0  0  0  0  0  0  0  0  0
   30.5090   74.2600   21.7400 C   0  0  0  0  0  0  0  0  0  0  0  0
   30.7550   75.0730   20.6300 C   0  0  0  0  0  0  0  0  0  0  0  0
   30.3970   74.6780   19.3430 C   0  0  0  0  0  0  0  0  0  0  0  0
   30.6410   75.4730   18.2870 N   0  0  0  0  0  0  0  0  0  0  0  0
   30.1490   77.1570   16.1110 N   0  0  0  0  0  0  0  0  0  0  0  0
   29.9015   79.6448   16.3145 H   0  0  0  0  0  0  0  0  0  0  0  0
   30.7134   80.0687   14.7692 H   0  0  0  0  0  0  0  0  0  0  0  0
   28.9890   79.5654   14.7692 H   0  0  0  0  0  0  0  0  0  0  0  0
   31.1477   78.3096   13.0658 H   0  0  0  0  0  0  0  0  0  0  0  0
   31.8247   75.9037   12.8261 H   0  0  0  0  0  0  0  0  0  0  0  0
   31.4143   74.3164   14.7240 H   0  0  0  0  0  0  0  0  0  0  0  0
   27.7980   71.8110   17.8970 H   0  0  0  0  0  0  0  0  0  0  0  0
   29.7637   69.8375   19.1325 H   0  0  0  0  0  0  0  0  0  0  0  0
   30.6265   67.6341   18.2932 H   0  0  0  0  0  0  0  0  0  0  0  0
   31.0040   66.2460   15.8650 H   0  0  0  0  0  0  0  0  0  0  0  0
   29.6137   68.9700   13.1008 H   0  0  0  0  0  0  0  0  0  0  0  0
   28.8806   71.1046   15.0826 H   0  0  0  0  0  0  0  0  0  0  0  0
   29.0339   71.6294   20.1641 H   0  0  0  0  0  0  0  0  0  0  0  0
   29.6972   72.3823   22.4480 H   0  0  0  0  0  0  0  0  0  0  0  0
   30.8036   74.5979   22.7445 H   0  0  0  0  0  0  0  0  0  0  0  0
   31.2429   76.0480   20.7762 H   0  0  0  0  0  0  0  0  0  0  0  0
  1  2  1  0
  2  3  2  0
  3  4  1  0
  4  5  2  0
  5  6  1  0
  6  7  1  0
  7  8  2  0
  8  9  1  0
  9 10  1  0
 10 11  1  0
 11 12  2  0
 12 13  1  0
 13 14  2  0
 14 15  1  0
 15 16  1  0
 16 17  2  0
 17 18  1  0
 18 19  2  0
  9 20  2  0
 20 21  1  0
 21 22  2  0
 22 23  1  0
 23 24  2  0
 24 25  1  0
 25 26  2  0
  6 27  2  0
 27  2  1  0
 26  7  1  0
 19 11  1  0
 25 20  1  0
 18 14  1  0
  1 28  1  0
  1 29  1  0
  1 30  1  0
  3 31  1  0
  4 32  1  0
  5 33  1  0
 10 34  1  0
 12 35  1  0
 13 36  1  0
 15 37  1  0
 17 38  1  0
 19 39  1  0
 21 40  1  0
 22 41  1  0
 23 42  1  0
 24 43  1  0
M  END
>  <meeko>  (5) 
{"is_sidechain": [false], "free_energy": -8.114, "intermolecular_energy": -9.537, "internal_energy": -0.874}

$$$$
N-1H-indazol-5-yl-2-(6-methylpyridin-2-yl)quinazolin-4-amine_9998128_out
     RDKit          3D

 43 47  0  0  0  0  0  0  0  0999 V2000
   33.0880   77.1970   22.3430 C   0  0  0  0  0  0  0  0  0  0  0  0
   32.2130   76.0920   21.8530 C   0  0  0  0  0  0  0  0  0  0  0  0
   31.5400   75.3020   22.7710 C   0  0  0  0  0  0  0  0  0  0  0  0
   30.7320   74.2800   22.2810 C   0  0  0  0  0  0  0  0  0  0  0  0
   30.6240   74.0840   20.9090 C   0  0  0  0  0  0  0  0  0  0  0  0
   31.3380   74.9290   20.0710 C   0  0  0  0  0  0  0  0  0  0  0  0
   31.2740   74.7850   18.6400 C   0  0  0  0  0  0  0  0  0  0  0  0
   30.4130   73.8710   18.1680 N   0  0  0  0  0  0  0  0  0  0  0  0
   30.3830   73.7670   16.8260 C   0  0  0  0  0  0  0  0  0  0  0  0
   29.4880   72.8140   16.2800 N   0  0  0  0  0  0  0  0  0  0  0  0
   29.5890   71.4300   16.0700 C   0  0  0  0  0  0  0  0  0  0  0  0
   29.4370   70.5460   17.1450 C   0  0  0  0  0  0  0  0  0  0  0  0
   29.5320   69.1620   16.9730 C   0  0  0  0  0  0  0  0  0  0  0  0
   29.7830   68.7000   15.6780 C   0  0  0  0  0  0  0  0  0  0  0  0
   29.9310   67.4370   15.1750 N   0  0  0  0  0  0  0  0  0  0  0  0
   30.1690   67.3940   13.8540 N   0  0  0  0  0  0  0  0  0  0  0  0
   30.1730   68.6820   13.5000 C   0  0  0  0  0  0  0  0  0  0  0  0
   29.9390   69.5490   14.5880 C   0  0  0  0  0  0  0  0  0  0  0  0
   29.8420   70.9380   14.7780 C   0  0  0  0  0  0  0  0  0  0  0  0
   31.1710   74.5330   15.9700 C   0  0  0  0  0  0  0  0  0  0  0  0
   31.1230   74.4060   14.5710 C   0  0  0  0  0  0  0  0  0  0  0  0
   31.9370   75.2020   13.7720 C   0  0  0  0  0  0  0  0  0  0  0  0
   32.7960   76.1210   14.3680 C   0  0  0  0  0  0  0  0  0  0  0  0
   32.8380   76.2400   15.7600 C   0  0  0  0  0  0  0  0  0  0  0  0
   32.0330   75.4560   16.5830 C   0  0  0  0  0  0  0  0  0  0  0  0
   32.0870   75.5850   17.9200 N   0  0  0  0  0  0  0  0  0  0  0  0
   32.1320   75.9320   20.5130 N   0  0  0  0  0  0  0  0  0  0  0  0
   33.0916   77.2015   23.4430 H   0  0  0  0  0  0  0  0  0  0  0  0
   34.1128   77.0444   21.9736 H   0  0  0  0  0  0  0  0  0  0  0  0
   32.7046   78.1596   21.9736 H   0  0  0  0  0  0  0  0  0  0  0  0
   31.6410   75.4769   23.8523 H   0  0  0  0  0  0  0  0  0  0  0  0
   30.1811   73.6300   22.9767 H   0  0  0  0  0  0  0  0  0  0  0  0
   29.9912   73.2827   20.4996 H   0  0  0  0  0  0  0  0  0  0  0  0
   28.5890   73.2160   15.9770 H   0  0  0  0  0  0  0  0  0  0  0  0
   29.2381   70.9501   18.1486 H   0  0  0  0  0  0  0  0  0  0  0  0
   29.4146   68.4681   17.8184 H   0  0  0  0  0  0  0  0  0  0  0  0
   29.8660   66.5900   15.7590 H   0  0  0  0  0  0  0  0  0  0  0  0
   30.3409   69.0296   12.4699 H   0  0  0  0  0  0  0  0  0  0  0  0
   29.9620   71.6284   13.9301 H   0  0  0  0  0  0  0  0  0  0  0  0
   30.4416   73.6770   14.1080 H   0  0  0  0  0  0  0  0  0  0  0  0
   31.9022   75.1060   12.6768 H   0  0  0  0  0  0  0  0  0  0  0  0
   33.4425   76.7543   13.7427 H   0  0  0  0  0  0  0  0  0  0  0  0
   33.5229   76.9699   16.2162 H   0  0  0  0  0  0  0  0  0  0  0  0
  1  2  1  0
  2  3  2  0
  3  4  1  0
  4  5  2  0
  5  6  1  0
  6  7  1  0
  7  8  2  0
  8  9  1  0
  9 10  1  0
 10 11  1  0
 11 12  2  0
 12 13  1  0
 13 14  2  0
 14 15  1  0
 15 16  1  0
 16 17  2  0
 17 18  1  0
 18 19  2  0
  9 20  2  0
 20 21  1  0
 21 22  2  0
 22 23  1  0
 23 24  2  0
 24 25  1  0
 25 26  2  0
  6 27  2  0
 27  2  1  0
 26  7  1  0
 19 11  1  0
 25 20  1  0
 18 14  1  0
  1 28  1  0
  1 29  1  0
  1 30  1  0
  3 31  1  0
  4 32  1  0
  5 33  1  0
 10 34  1  0
 12 35  1  0
 13 36  1  0
 15 37  1  0
 17 38  1  0
 19 39  1  0
 21 40  1  0
 22 41  1  0
 23 42  1  0
 24 43  1  0
M  END
>  <meeko>  (6) 
{"is_sidechain": [false], "free_energy": -8.091, "intermolecular_energy": -9.501, "internal_energy": -0.883}

$$$$
N-1H-indazol-5-yl-2-(6-methylpyridin-2-yl)quinazolin-4-amine_9998128_out
     RDKit          3D

 43 47  0  0  0  0  0  0  0  0999 V2000
   34.6600   73.3740   14.5080 C   0  0  0  0  0  0  0  0  0  0  0  0
   34.2710   74.2440   15.6560 C   0  0  0  0  0  0  0  0  0  0  0  0
   34.8300   75.5070   15.7710 C   0  0  0  0  0  0  0  0  0  0  0  0
   34.4470   76.2920   16.8540 C   0  0  0  0  0  0  0  0  0  0  0  0
   33.5290   75.7970   17.7730 C   0  0  0  0  0  0  0  0  0  0  0  0
   33.0260   74.5200   17.5710 C   0  0  0  0  0  0  0  0  0  0  0  0
   32.0730   73.9430   18.4820 C   0  0  0  0  0  0  0  0  0  0  0  0
   31.3970   72.8700   18.0420 N   0  0  0  0  0  0  0  0  0  0  0  0
   30.5160   72.3600   18.9230 C   0  0  0  0  0  0  0  0  0  0  0  0
   29.7780   71.2260   18.5030 N   0  0  0  0  0  0  0  0  0  0  0  0
   30.1000   70.1400   17.6750 C   0  0  0  0  0  0  0  0  0  0  0  0
   30.8510   69.0710   18.1820 C   0  0  0  0  0  0  0  0  0  0  0  0
   31.1890   67.9730   17.3850 C   0  0  0  0  0  0  0  0  0  0  0  0
   30.7440   67.9890   16.0610 C   0  0  0  0  0  0  0  0  0  0  0  0
   30.8970   67.0940   15.0380 N   0  0  0  0  0  0  0  0  0  0  0  0
   30.3140   67.4670   13.8870 N   0  0  0  0  0  0  0  0  0  0  0  0
   29.7670   68.6480   14.1870 C   0  0  0  0  0  0  0  0  0  0  0  0
   29.9970   69.0330   15.5260 C   0  0  0  0  0  0  0  0  0  0  0  0
   29.6650   70.1300   16.3390 C   0  0  0  0  0  0  0  0  0  0  0  0
   30.3030   72.8810   20.1970 C   0  0  0  0  0  0  0  0  0  0  0  0
   29.3760   72.3300   21.1010 C   0  0  0  0  0  0  0  0  0  0  0  0
   29.2110   72.8990   22.3590 C   0  0  0  0  0  0  0  0  0  0  0  0
   29.9660   74.0120   22.7140 C   0  0  0  0  0  0  0  0  0  0  0  0
   30.8840   74.5540   21.8100 C   0  0  0  0  0  0  0  0  0  0  0  0
   31.0700   74.0040   20.5440 C   0  0  0  0  0  0  0  0  0  0  0  0
   31.9580   74.5380   19.6870 N   0  0  0  0  0  0  0  0  0  0  0  0
   33.3770   73.7300   16.5300 N   0  0  0  0  0  0  0  0  0  0  0  0
   35.0813   72.4317   14.8883 H   0  0  0  0  0  0  0  0  0  0  0  0
   33.7728   73.1578   13.8947 H   0  0  0  0  0  0  0  0  0  0  0  0
   35.4127   73.8910   13.8947 H   0  0  0  0  0  0  0  0  0  0  0  0
   35.5535   75.8770   15.0296 H   0  0  0  0  0  0  0  0  0  0  0  0
   34.8687   77.2998   16.9824 H   0  0  0  0  0  0  0  0  0  0  0  0
   33.2105   76.4006   18.6357 H   0  0  0  0  0  0  0  0  0  0  0  0
   28.8190   71.1920   18.8780 H   0  0  0  0  0  0  0  0  0  0  0  0
   31.1821   69.0963   19.2307 H   0  0  0  0  0  0  0  0  0  0  0  0
   31.7789   67.1341   17.7828 H   0  0  0  0  0  0  0  0  0  0  0  0
   31.4160   66.2090   15.1410 H   0  0  0  0  0  0  0  0  0  0  0  0
   29.1982   69.2557   13.4679 H   0  0  0  0  0  0  0  0  0  0  0  0
   29.0748   70.9664   15.9365 H   0  0  0  0  0  0  0  0  0  0  0  0
   28.7824   71.4499   20.8127 H   0  0  0  0  0  0  0  0  0  0  0  0
   28.4878   72.4715   23.0691 H   0  0  0  0  0  0  0  0  0  0  0  0
   29.8404   74.4664   23.7079 H   0  0  0  0  0  0  0  0  0  0  0  0
   31.4729   75.4349   22.1051 H   0  0  0  0  0  0  0  0  0  0  0  0
  1  2  1  0
  2  3  2  0
  3  4  1  0
  4  5  2  0
  5  6  1  0
  6  7  1  0
  7  8  2  0
  8  9  1  0
  9 10  1  0
 10 11  1  0
 11 12  2  0
 12 13  1  0
 13 14  2  0
 14 15  1  0
 15 16  1  0
 16 17  2  0
 17 18  1  0
 18 19  2  0
  9 20  2  0
 20 21  1  0
 21 22  2  0
 22 23  1  0
 23 24  2  0
 24 25  1  0
 25 26  2  0
  6 27  2  0
 27  2  1  0
 26  7  1  0
 19 11  1  0
 25 20  1  0
 18 14  1  0
  1 28  1  0
  1 29  1  0
  1 30  1  0
  3 31  1  0
  4 32  1  0
  5 33  1  0
 10 34  1  0
 12 35  1  0
 13 36  1  0
 15 37  1  0
 17 38  1  0
 19 39  1  0
 21 40  1  0
 22 41  1  0
 23 42  1  0
 24 43  1  0
M  END
>  <meeko>  (7) 
{"is_sidechain": [false], "free_energy": -7.844, "intermolecular_energy": -9.192, "internal_energy": -0.902}

$$$$
N-1H-indazol-5-yl-2-(6-methylpyridin-2-yl)quinazolin-4-amine_9998128_out
     RDKit          3D

 43 47  0  0  0  0  0  0  0  0999 V2000
   30.8960   82.2400   12.7200 C   0  0  0  0  0  0  0  0  0  0  0  0
   31.3010   81.6000   14.0050 C   0  0  0  0  0  0  0  0  0  0  0  0
   32.6440   81.3620   14.2510 C   0  0  0  0  0  0  0  0  0  0  0  0
   32.9880   80.7630   15.4580 C   0  0  0  0  0  0  0  0  0  0  0  0
   31.9930   80.4270   16.3690 C   0  0  0  0  0  0  0  0  0  0  0  0
   30.6770   80.7060   16.0300 C   0  0  0  0  0  0  0  0  0  0  0  0
   29.5950   80.3840   16.9240 C   0  0  0  0  0  0  0  0  0  0  0  0
   29.9250   80.1460   18.2030 N   0  0  0  0  0  0  0  0  0  0  0  0
   28.8850   79.8500   19.0050 C   0  0  0  0  0  0  0  0  0  0  0  0
   29.1840   79.5910   20.3660 N   0  0  0  0  0  0  0  0  0  0  0  0
   29.6290   78.4410   21.0360 C   0  0  0  0  0  0  0  0  0  0  0  0
   30.6190   78.5440   22.0220 C   0  0  0  0  0  0  0  0  0  0  0  0
   31.0850   77.4200   22.7100 C   0  0  0  0  0  0  0  0  0  0  0  0
   30.5180   76.1890   22.3710 C   0  0  0  0  0  0  0  0  0  0  0  0
   30.7420   74.9230   22.8400 N   0  0  0  0  0  0  0  0  0  0  0  0
   29.9870   73.9780   22.2560 N   0  0  0  0  0  0  0  0  0  0  0  0
   29.2530   74.6680   21.3800 C   0  0  0  0  0  0  0  0  0  0  0  0
   29.5330   76.0510   21.3990 C   0  0  0  0  0  0  0  0  0  0  0  0
   29.0750   77.1900   20.7160 C   0  0  0  0  0  0  0  0  0  0  0  0
   27.5630   79.7880   18.5730 C   0  0  0  0  0  0  0  0  0  0  0  0
   26.4940   79.4750   19.4300 C   0  0  0  0  0  0  0  0  0  0  0  0
   25.1950   79.4290   18.9340 C   0  0  0  0  0  0  0  0  0  0  0  0
   24.9650   79.6930   17.5880 C   0  0  0  0  0  0  0  0  0  0  0  0
   26.0340   80.0030   16.7420 C   0  0  0  0  0  0  0  0  0  0  0  0
   27.3440   80.0560   17.2120 C   0  0  0  0  0  0  0  0  0  0  0  0
   28.3590   80.3560   16.3830 N   0  0  0  0  0  0  0  0  0  0  0  0
   30.3070   81.2860   14.8660 N   0  0  0  0  0  0  0  0  0  0  0  0
   30.3187   83.1523   12.9307 H   0  0  0  0  0  0  0  0  0  0  0  0
   31.7943   82.5001   12.1408 H   0  0  0  0  0  0  0  0  0  0  0  0
   30.2764   81.5396   12.1408 H   0  0  0  0  0  0  0  0  0  0  0  0
   33.4134   81.6381   13.5149 H   0  0  0  0  0  0  0  0  0  0  0  0
   34.0429   80.5559   15.6909 H   0  0  0  0  0  0  0  0  0  0  0  0
   32.2419   79.9538   17.3303 H   0  0  0  0  0  0  0  0  0  0  0  0
   29.0470   80.4050   20.9830 H   0  0  0  0  0  0  0  0  0  0  0  0
   31.0393   79.5322   22.2602 H   0  0  0  0  0  0  0  0  0  0  0  0
   31.8630   77.5011   23.4834 H   0  0  0  0  0  0  0  0  0  0  0  0
   31.4300   74.7130   23.5780 H   0  0  0  0  0  0  0  0  0  0  0  0
   28.5087   74.2073   20.7139 H   0  0  0  0  0  0  0  0  0  0  0  0
   28.2961   77.1040   19.9440 H   0  0  0  0  0  0  0  0  0  0  0  0
   26.6844   79.2663   20.4931 H   0  0  0  0  0  0  0  0  0  0  0  0
   24.3556   79.1855   19.6019 H   0  0  0  0  0  0  0  0  0  0  0  0
   23.9407   79.6578   17.1886 H   0  0  0  0  0  0  0  0  0  0  0  0
   25.8358   80.2100   15.6800 H   0  0  0  0  0  0  0  0  0  0  0  0
  1  2  1  0
  2  3  2  0
  3  4  1  0
  4  5  2  0
  5  6  1  0
  6  7  1  0
  7  8  2  0
  8  9  1  0
  9 10  1  0
 10 11  1  0
 11 12  2  0
 12 13  1  0
 13 14  2  0
 14 15  1  0
 15 16  1  0
 16 17  2  0
 17 18  1  0
 18 19  2  0
  9 20  2  0
 20 21  1  0
 21 22  2  0
 22 23  1  0
 23 24  2  0
 24 25  1  0
 25 26  2  0
  6 27  2  0
 27  2  1  0
 26  7  1  0
 19 11  1  0
 25 20  1  0
 18 14  1  0
  1 28  1  0
  1 29  1  0
  1 30  1  0
  3 31  1  0
  4 32  1  0
  5 33  1  0
 10 34  1  0
 12 35  1  0
 13 36  1  0
 15 37  1  0
 17 38  1  0
 19 39  1  0
 21 40  1  0
 22 41  1  0
 23 42  1  0
 24 43  1  0
M  END
>  <meeko>  (8) 
{"is_sidechain": [false], "free_energy": -7.739, "intermolecular_energy": -9.086, "internal_energy": -0.885}

$$$$
N-1H-indazol-5-yl-2-(6-methylpyridin-2-yl)quinazolin-4-amine_9998128_out
     RDKit          3D

 43 47  0  0  0  0  0  0  0  0999 V2000
   32.6960   69.5650   14.8940 C   0  0  0  0  0  0  0  0  0  0  0  0
   31.4840   69.9330   15.6830 C   0  0  0  0  0  0  0  0  0  0  0  0
   30.2530   69.4140   15.3190 C   0  0  0  0  0  0  0  0  0  0  0  0
   29.1440   69.7780   16.0760 C   0  0  0  0  0  0  0  0  0  0  0  0
   29.2990   70.6370   17.1570 C   0  0  0  0  0  0  0  0  0  0  0  0
   30.5740   71.1040   17.4420 C   0  0  0  0  0  0  0  0  0  0  0  0
   30.8100   71.9980   18.5460 C   0  0  0  0  0  0  0  0  0  0  0  0
   31.8990   72.7790   18.4620 N   0  0  0  0  0  0  0  0  0  0  0  0
   32.0830   73.5990   19.5130 C   0  0  0  0  0  0  0  0  0  0  0  0
   33.2200   74.4440   19.4700 N   0  0  0  0  0  0  0  0  0  0  0  0
   33.4550   75.6850   18.8570 C   0  0  0  0  0  0  0  0  0  0  0  0
   33.7910   75.7410   17.4980 C   0  0  0  0  0  0  0  0  0  0  0  0
   34.0320   76.9590   16.8540 C   0  0  0  0  0  0  0  0  0  0  0  0
   33.9200   78.1170   17.6280 C   0  0  0  0  0  0  0  0  0  0  0  0
   34.0860   79.4390   17.3160 N   0  0  0  0  0  0  0  0  0  0  0  0
   33.8890   80.2770   18.3470 N   0  0  0  0  0  0  0  0  0  0  0  0
   33.5860   79.4570   19.3570 C   0  0  0  0  0  0  0  0  0  0  0  0
   33.5870   78.0980   18.9780 C   0  0  0  0  0  0  0  0  0  0  0  0
   33.3490   76.8660   19.6100 C   0  0  0  0  0  0  0  0  0  0  0  0
   31.2310   73.6570   20.6130 C   0  0  0  0  0  0  0  0  0  0  0  0
   31.4460   74.5220   21.7000 C   0  0  0  0  0  0  0  0  0  0  0  0
   30.5560   74.5300   22.7690 C   0  0  0  0  0  0  0  0  0  0  0  0
   29.4570   73.6770   22.7530 C   0  0  0  0  0  0  0  0  0  0  0  0
   29.2510   72.8190   21.6690 C   0  0  0  0  0  0  0  0  0  0  0  0
   30.1260   72.7910   20.5860 C   0  0  0  0  0  0  0  0  0  0  0  0
   29.9120   71.9590   19.5510 N   0  0  0  0  0  0  0  0  0  0  0  0
   31.6730   70.7710   16.7270 N   0  0  0  0  0  0  0  0  0  0  0  0
   33.5185   69.3153   15.5804 H   0  0  0  0  0  0  0  0  0  0  0  0
   32.4705   68.6948   14.2600 H   0  0  0  0  0  0  0  0  0  0  0  0
   32.9924   70.4136   14.2600 H   0  0  0  0  0  0  0  0  0  0  0  0
   30.1551   68.7355   14.4587 H   0  0  0  0  0  0  0  0  0  0  0  0
   28.1482   69.3872   15.8197 H   0  0  0  0  0  0  0  0  0  0  0  0
   28.4360   70.9380   17.7690 H   0  0  0  0  0  0  0  0  0  0  0  0
   34.0310   74.0770   19.9890 H   0  0  0  0  0  0  0  0  0  0  0  0
   33.8670   74.8055   16.9243 H   0  0  0  0  0  0  0  0  0  0  0  0
   34.2975   77.0033   15.7874 H   0  0  0  0  0  0  0  0  0  0  0  0
   34.3400   79.7640   16.3720 H   0  0  0  0  0  0  0  0  0  0  0  0
   33.3598   79.8044   20.3759 H   0  0  0  0  0  0  0  0  0  0  0  0
   33.0840   76.8269   20.6769 H   0  0  0  0  0  0  0  0  0  0  0  0
   32.3180   75.1925   21.7052 H   0  0  0  0  0  0  0  0  0  0  0  0
   30.7200   75.2060   23.6211 H   0  0  0  0  0  0  0  0  0  0  0  0
   28.7490   73.6778   23.5949 H   0  0  0  0  0  0  0  0  0  0  0  0
   28.3775   72.1504   21.6714 H   0  0  0  0  0  0  0  0  0  0  0  0
  1  2  1  0
  2  3  2  0
  3  4  1  0
  4  5  2  0
  5  6  1  0
  6  7  1  0
  7  8  2  0
  8  9  1  0
  9 10  1  0
 10 11  1  0
 11 12  2  0
 12 13  1  0
 13 14  2  0
 14 15  1  0
 15 16  1  0
 16 17  2  0
 17 18  1  0
 18 19  2  0
  9 20  2  0
 20 21  1  0
 21 22  2  0
 22 23  1  0
 23 24  2  0
 24 25  1  0
 25 26  2  0
  6 27  2  0
 27  2  1  0
 26  7  1  0
 19 11  1  0
 25 20  1  0
 18 14  1  0
  1 28  1  0
  1 29  1  0
  1 30  1  0
  3 31  1  0
  4 32  1  0
  5 33  1  0
 10 34  1  0
 12 35  1  0
 13 36  1  0
 15 37  1  0
 17 38  1  0
 19 39  1  0
 21 40  1  0
 22 41  1  0
 23 42  1  0
 24 43  1  0
M  END
>  <meeko>  (9) 
{"is_sidechain": [false], "free_energy": -7.714, "intermolecular_energy": -9.031, "internal_energy": -0.91}

$$$$
