SANGUINARINE_5154_out
     RDKit          3D

 39 44  0  0  0  0  0  0  0  0999 V2000
   33.3690   72.8990   17.6900 C   0  0  0  0  0  0  0  0  0  0  0  0
   32.4370   73.1220   18.7940 N   0  0  0  0  0  0  0  0  0  0  0  0
   32.7690   74.2650   19.3980 C   0  0  0  0  0  0  0  0  0  0  0  0
   32.0540   74.7270   20.4940 C   0  0  0  0  0  0  0  0  0  0  0  0
   32.3870   75.9180   21.1380 C   0  0  0  0  0  0  0  0  0  0  0  0
   31.6840   76.3810   22.2230 C   0  0  0  0  0  0  0  0  0  0  0  0
   30.6110   75.6900   22.7290 C   0  0  0  0  0  0  0  0  0  0  0  0
   30.2550   74.4910   22.1010 C   0  0  0  0  0  0  0  0  0  0  0  0
   30.9590   73.9710   20.9690 C   0  0  0  0  0  0  0  0  0  0  0  0
   30.6320   72.7480   20.2920 C   0  0  0  0  0  0  0  0  0  0  0  0
   29.5660   71.9090   20.6730 C   0  0  0  0  0  0  0  0  0  0  0  0
   29.2750   70.7240   19.9950 C   0  0  0  0  0  0  0  0  0  0  0  0
   30.0350   70.3180   18.8990 C   0  0  0  0  0  0  0  0  0  0  0  0
   29.7100   69.1170   18.2420 C   0  0  0  0  0  0  0  0  0  0  0  0
   30.4690   68.7300   17.1610 C   0  0  0  0  0  0  0  0  0  0  0  0
   31.5220   69.4860   16.7230 C   0  0  0  0  0  0  0  0  0  0  0  0
   31.8720   70.6690   17.3430 C   0  0  0  0  0  0  0  0  0  0  0  0
   31.1280   71.1220   18.4630 C   0  0  0  0  0  0  0  0  0  0  0  0
   31.4100   72.3310   19.1730 C   0  0  0  0  0  0  0  0  0  0  0  0
   32.1430   68.9350   15.6450 O   0  0  0  0  0  0  0  0  0  0  0  0
   31.3570   67.7420   15.4550 C   0  0  0  0  0  0  0  0  0  0  0  0
   30.2910   67.6050   16.4160 O   0  0  0  0  0  0  0  0  0  0  0  0
   32.1710   77.5570   22.7020 O   0  0  0  0  0  0  0  0  0  0  0  0
   33.2660   77.7910   21.7970 C   0  0  0  0  0  0  0  0  0  0  0  0
   33.4100   76.7570   20.8030 O   0  0  0  0  0  0  0  0  0  0  0  0
   34.3644   72.6608   18.0929 H   0  0  0  0  0  0  0  0  0  0  0  0
   33.0129   72.0607   17.0732 H   0  0  0  0  0  0  0  0  0  0  0  0
   33.4309   73.8077   17.0732 H   0  0  0  0  0  0  0  0  0  0  0  0
   33.6217   74.8492   19.0216 H   0  0  0  0  0  0  0  0  0  0  0  0
   30.0506   76.0657   23.5978 H   0  0  0  0  0  0  0  0  0  0  0  0
   29.3979   73.9245   22.4942 H   0  0  0  0  0  0  0  0  0  0  0  0
   28.9430   72.1971   21.5325 H   0  0  0  0  0  0  0  0  0  0  0  0
   28.4330   70.1009   20.3307 H   0  0  0  0  0  0  0  0  0  0  0  0
   28.8666   68.4999   18.5853 H   0  0  0  0  0  0  0  0  0  0  0  0
   32.7235   71.2574   16.9705 H   0  0  0  0  0  0  0  0  0  0  0  0
   30.9175   67.7698   14.4470 H   0  0  0  0  0  0  0  0  0  0  0  0
   32.0301   66.8824   15.5888 H   0  0  0  0  0  0  0  0  0  0  0  0
   33.0969   78.7490   21.2835 H   0  0  0  0  0  0  0  0  0  0  0  0
   34.1890   77.8012   22.3953 H   0  0  0  0  0  0  0  0  0  0  0  0
  1  2  1  0
  2  3  2  0
  3  4  1  0
  4  5  2  0
  5  6  1  0
  6  7  2  0
  7  8  1  0
  8  9  2  0
  9 10  1  0
 10 11  2  0
 11 12  1  0
 12 13  2  0
 13 14  1  0
 14 15  2  0
 15 16  1  0
 16 17  2  0
 17 18  1  0
 18 19  2  0
 16 20  1  0
 20 21  1  0
 21 22  1  0
  6 23  1  0
 23 24  1  0
 24 25  1  0
 19  2  1  0
  9  4  1  0
 19 10  1  0
 25  5  1  0
 18 13  1  0
 22 15  1  0
  1 26  1  0
  1 27  1  0
  1 28  1  0
  3 29  1  0
  7 30  1  0
  8 31  1  0
 11 32  1  0
 12 33  1  0
 14 34  1  0
 17 35  1  0
 21 36  1  0
 21 37  1  0
 24 38  1  0
 24 39  1  0
M  CHG  1   2   1
M  END
>  <meeko>  (1) 
{"is_sidechain": [false], "free_energy": -9.038, "intermolecular_energy": -9.038, "internal_energy": 0.0}

$$$$
SANGUINARINE_5154_out
     RDKit          3D

 39 44  0  0  0  0  0  0  0  0999 V2000
   33.5540   73.7180   18.0970 C   0  0  0  0  0  0  0  0  0  0  0  0
   32.4650   72.8480   18.5390 N   0  0  0  0  0  0  0  0  0  0  0  0
   32.4330   71.7780   17.7430 C   0  0  0  0  0  0  0  0  0  0  0  0
   31.4880   70.7790   17.9270 C   0  0  0  0  0  0  0  0  0  0  0  0
   31.4400   69.6540   17.1040 C   0  0  0  0  0  0  0  0  0  0  0  0
   30.5060   68.6620   17.2790 C   0  0  0  0  0  0  0  0  0  0  0  0
   29.5700   68.7290   18.2820 C   0  0  0  0  0  0  0  0  0  0  0  0
   29.5970   69.8480   19.1220 C   0  0  0  0  0  0  0  0  0  0  0  0
   30.5500   70.9050   18.9760 C   0  0  0  0  0  0  0  0  0  0  0  0
   30.6160   72.0700   19.8120 C   0  0  0  0  0  0  0  0  0  0  0  0
   29.7360   72.3070   20.8860 C   0  0  0  0  0  0  0  0  0  0  0  0
   29.8260   73.4520   21.6790 C   0  0  0  0  0  0  0  0  0  0  0  0
   30.8020   74.4190   21.4410 C   0  0  0  0  0  0  0  0  0  0  0  0
   30.8600   75.5590   22.2630 C   0  0  0  0  0  0  0  0  0  0  0  0
   31.8300   76.5030   22.0140 C   0  0  0  0  0  0  0  0  0  0  0  0
   32.7260   76.3520   20.9910 C   0  0  0  0  0  0  0  0  0  0  0  0
   32.7000   75.2460   20.1630 C   0  0  0  0  0  0  0  0  0  0  0  0
   31.7230   74.2380   20.3680 C   0  0  0  0  0  0  0  0  0  0  0  0
   31.6130   73.0590   19.5660 C   0  0  0  0  0  0  0  0  0  0  0  0
   33.6030   77.3890   20.9110 O   0  0  0  0  0  0  0  0  0  0  0  0
   33.1520   78.2140   22.0050 C   0  0  0  0  0  0  0  0  0  0  0  0
   32.0250   77.6560   22.7100 O   0  0  0  0  0  0  0  0  0  0  0  0
   30.6310   67.6570   16.3720 O   0  0  0  0  0  0  0  0  0  0  0  0
   31.7520   68.1220   15.5980 C   0  0  0  0  0  0  0  0  0  0  0  0
   32.2700   69.3870   16.0540 O   0  0  0  0  0  0  0  0  0  0  0  0
   34.0720   74.1318   18.9747 H   0  0  0  0  0  0  0  0  0  0  0  0
   34.2652   73.1366   17.4919 H   0  0  0  0  0  0  0  0  0  0  0  0
   33.1440   74.5400   17.4919 H   0  0  0  0  0  0  0  0  0  0  0  0
   33.1668   71.6864   16.9286 H   0  0  0  0  0  0  0  0  0  0  0  0
   28.8254   67.9312   18.4201 H   0  0  0  0  0  0  0  0  0  0  0  0
   28.8533   69.9179   19.9295 H   0  0  0  0  0  0  0  0  0  0  0  0
   28.9532   71.5664   21.1067 H   0  0  0  0  0  0  0  0  0  0  0  0
   29.1147   73.5940   22.5060 H   0  0  0  0  0  0  0  0  0  0  0  0
   30.1448   75.6932   23.0879 H   0  0  0  0  0  0  0  0  0  0  0  0
   33.4332   75.1476   19.3489 H   0  0  0  0  0  0  0  0  0  0  0  0
   33.9827   78.3372   22.7155 H   0  0  0  0  0  0  0  0  0  0  0  0
   32.8276   79.1744   21.5780 H   0  0  0  0  0  0  0  0  0  0  0  0
   32.5548   67.3725   15.6599 H   0  0  0  0  0  0  0  0  0  0  0  0
   31.4000   68.2655   14.5658 H   0  0  0  0  0  0  0  0  0  0  0  0
  1  2  1  0
  2  3  2  0
  3  4  1  0
  4  5  2  0
  5  6  1  0
  6  7  2  0
  7  8  1  0
  8  9  2  0
  9 10  1  0
 10 11  2  0
 11 12  1  0
 12 13  2  0
 13 14  1  0
 14 15  2  0
 15 16  1  0
 16 17  2  0
 17 18  1  0
 18 19  2  0
 16 20  1  0
 20 21  1  0
 21 22  1  0
  6 23  1  0
 23 24  1  0
 24 25  1  0
 19  2  1  0
  9  4  1  0
 19 10  1  0
 25  5  1  0
 18 13  1  0
 22 15  1  0
  1 26  1  0
  1 27  1  0
  1 28  1  0
  3 29  1  0
  7 30  1  0
  8 31  1  0
 11 32  1  0
 12 33  1  0
 14 34  1  0
 17 35  1  0
 21 36  1  0
 21 37  1  0
 24 38  1  0
 24 39  1  0
M  CHG  1   2   1
M  END
>  <meeko>  (2) 
{"is_sidechain": [false], "free_energy": -8.809, "intermolecular_energy": -8.809, "internal_energy": 0.0}

$$$$
SANGUINARINE_5154_out
     RDKit          3D

 39 44  0  0  0  0  0  0  0  0999 V2000
   31.5430   75.9230   16.7450 C   0  0  0  0  0  0  0  0  0  0  0  0
   31.1630   74.7690   17.5600 N   0  0  0  0  0  0  0  0  0  0  0  0
   30.6930   73.8200   16.7480 C   0  0  0  0  0  0  0  0  0  0  0  0
   30.2480   72.6060   17.2520 C   0  0  0  0  0  0  0  0  0  0  0  0
   29.7530   71.6030   16.4190 C   0  0  0  0  0  0  0  0  0  0  0  0
   29.3100   70.3990   16.9100 C   0  0  0  0  0  0  0  0  0  0  0  0
   29.3340   70.1230   18.2550 C   0  0  0  0  0  0  0  0  0  0  0  0
   29.8260   71.1130   19.1140 C   0  0  0  0  0  0  0  0  0  0  0  0
   30.2970   72.3800   18.6450 C   0  0  0  0  0  0  0  0  0  0  0  0
   30.8100   73.4250   19.4860 C   0  0  0  0  0  0  0  0  0  0  0  0
   30.9070   73.3180   20.8870 C   0  0  0  0  0  0  0  0  0  0  0  0
   31.4090   74.3540   21.6770 C   0  0  0  0  0  0  0  0  0  0  0  0
   31.8410   75.5510   21.1060 C   0  0  0  0  0  0  0  0  0  0  0  0
   32.3400   76.5710   21.9360 C   0  0  0  0  0  0  0  0  0  0  0  0
   32.7640   77.7450   21.3560 C   0  0  0  0  0  0  0  0  0  0  0  0
   32.7050   77.9330   20.0020 C   0  0  0  0  0  0  0  0  0  0  0  0
   32.2200   76.9550   19.1550 C   0  0  0  0  0  0  0  0  0  0  0  0
   31.7680   75.7210   19.6930 C   0  0  0  0  0  0  0  0  0  0  0  0
   31.2490   74.6480   18.9020 C   0  0  0  0  0  0  0  0  0  0  0  0
   33.1700   79.1550   19.6270 O   0  0  0  0  0  0  0  0  0  0  0  0
   33.5270   79.7170   20.9050 C   0  0  0  0  0  0  0  0  0  0  0  0
   33.2720   78.8260   22.0100 O   0  0  0  0  0  0  0  0  0  0  0  0
   28.8680   69.5630   15.9330 O   0  0  0  0  0  0  0  0  0  0  0  0
   29.0810   70.3720   14.7610 C   0  0  0  0  0  0  0  0  0  0  0  0
   29.6400   71.6660   15.0600 O   0  0  0  0  0  0  0  0  0  0  0  0
   31.8189   76.7610   17.4020 H   0  0  0  0  0  0  0  0  0  0  0  0
   32.4010   75.6569   16.1101 H   0  0  0  0  0  0  0  0  0  0  0  0
   30.6948   76.2188   16.1101 H   0  0  0  0  0  0  0  0  0  0  0  0
   30.6578   74.0026   15.6638 H   0  0  0  0  0  0  0  0  0  0  0  0
   28.9789   69.1573   18.6441 H   0  0  0  0  0  0  0  0  0  0  0  0
   29.8515   70.9082   20.1945 H   0  0  0  0  0  0  0  0  0  0  0  0
   30.5768   72.3887   21.3743 H   0  0  0  0  0  0  0  0  0  0  0  0
   31.4647   74.2240   22.7679 H   0  0  0  0  0  0  0  0  0  0  0  0
   32.3904   76.4333   23.0262 H   0  0  0  0  0  0  0  0  0  0  0  0
   32.1842   77.1313   18.0698 H   0  0  0  0  0  0  0  0  0  0  0  0
   34.5998   79.9599   20.8924 H   0  0  0  0  0  0  0  0  0  0  0  0
   32.9022   80.6099   21.0549 H   0  0  0  0  0  0  0  0  0  0  0  0
   29.7704   69.8398   14.0891 H   0  0  0  0  0  0  0  0  0  0  0  0
   28.0985   70.5393   14.2956 H   0  0  0  0  0  0  0  0  0  0  0  0
  1  2  1  0
  2  3  2  0
  3  4  1  0
  4  5  2  0
  5  6  1  0
  6  7  2  0
  7  8  1  0
  8  9  2  0
  9 10  1  0
 10 11  2  0
 11 12  1  0
 12 13  2  0
 13 14  1  0
 14 15  2  0
 15 16  1  0
 16 17  2  0
 17 18  1  0
 18 19  2  0
 16 20  1  0
 20 21  1  0
 21 22  1  0
  6 23  1  0
 23 24  1  0
 24 25  1  0
 19  2  1  0
  9  4  1  0
 19 10  1  0
 25  5  1  0
 18 13  1  0
 22 15  1  0
  1 26  1  0
  1 27  1  0
  1 28  1  0
  3 29  1  0
  7 30  1  0
  8 31  1  0
 11 32  1  0
 12 33  1  0
 14 34  1  0
 17 35  1  0
 21 36  1  0
 21 37  1  0
 24 38  1  0
 24 39  1  0
M  CHG  1   2   1
M  END
>  <meeko>  (3) 
{"is_sidechain": [false], "free_energy": -8.028, "intermolecular_energy": -8.028, "internal_energy": 0.0}

$$$$
SANGUINARINE_5154_out
     RDKit          3D

 39 44  0  0  0  0  0  0  0  0999 V2000
   29.4800   71.8550   19.7860 C   0  0  0  0  0  0  0  0  0  0  0  0
   30.6370   71.7000   18.9040 N   0  0  0  0  0  0  0  0  0  0  0  0
   30.4510   70.6100   18.1570 C   0  0  0  0  0  0  0  0  0  0  0  0
   31.4010   70.2130   17.2270 C   0  0  0  0  0  0  0  0  0  0  0  0
   31.2250   69.0770   16.4380 C   0  0  0  0  0  0  0  0  0  0  0  0
   32.1610   68.6760   15.5160 C   0  0  0  0  0  0  0  0  0  0  0  0
   33.3240   69.3810   15.3250 C   0  0  0  0  0  0  0  0  0  0  0  0
   33.5260   70.5260   16.1040 C   0  0  0  0  0  0  0  0  0  0  0  0
   32.5790   70.9790   17.0760 C   0  0  0  0  0  0  0  0  0  0  0  0
   32.7420   72.1450   17.8980 C   0  0  0  0  0  0  0  0  0  0  0  0
   33.8700   72.9860   17.8390 C   0  0  0  0  0  0  0  0  0  0  0  0
   33.9990   74.1120   18.6540 C   0  0  0  0  0  0  0  0  0  0  0  0
   33.0050   74.4570   19.5680 C   0  0  0  0  0  0  0  0  0  0  0  0
   33.1720   75.6000   20.3710 C   0  0  0  0  0  0  0  0  0  0  0  0
   32.1810   75.9270   21.2680 C   0  0  0  0  0  0  0  0  0  0  0  0
   31.0510   75.1650   21.3900 C   0  0  0  0  0  0  0  0  0  0  0  0
   30.8520   74.0360   20.6190 C   0  0  0  0  0  0  0  0  0  0  0  0
   31.8370   73.6460   19.6760 C   0  0  0  0  0  0  0  0  0  0  0  0
   31.7260   72.4960   18.8340 C   0  0  0  0  0  0  0  0  0  0  0  0
   30.1940   75.6530   22.3270 O   0  0  0  0  0  0  0  0  0  0  0  0
   30.9190   76.8130   22.7840 C   0  0  0  0  0  0  0  0  0  0  0  0
   32.1830   76.9930   22.1140 O   0  0  0  0  0  0  0  0  0  0  0  0
   31.7970   67.5460   14.8540 O   0  0  0  0  0  0  0  0  0  0  0  0
   30.5200   67.2710   15.4590 C   0  0  0  0  0  0  0  0  0  0  0  0
   30.1500   68.2350   16.4640 O   0  0  0  0  0  0  0  0  0  0  0  0
   29.8097   71.8108   20.8345 H   0  0  0  0  0  0  0  0  0  0  0  0
   28.9995   72.8256   19.5933 H   0  0  0  0  0  0  0  0  0  0  0  0
   28.7609   71.0452   19.5933 H   0  0  0  0  0  0  0  0  0  0  0  0
   29.5320   70.0182   18.2802 H   0  0  0  0  0  0  0  0  0  0  0  0
   34.0709   69.0569   14.5853 H   0  0  0  0  0  0  0  0  0  0  0  0
   34.4523   71.1022   15.9629 H   0  0  0  0  0  0  0  0  0  0  0  0
   34.6750   72.7481   17.1281 H   0  0  0  0  0  0  0  0  0  0  0  0
   34.9003   74.7375   18.5735 H   0  0  0  0  0  0  0  0  0  0  0  0
   34.0765   76.2198   20.2836 H   0  0  0  0  0  0  0  0  0  0  0  0
   29.9335   73.4421   20.7360 H   0  0  0  0  0  0  0  0  0  0  0  0
   30.2995   77.7046   22.6072 H   0  0  0  0  0  0  0  0  0  0  0  0
   31.1336   76.6644   23.8526 H   0  0  0  0  0  0  0  0  0  0  0  0
   29.7519   67.2742   14.6716 H   0  0  0  0  0  0  0  0  0  0  0  0
   30.5971   66.2928   15.9562 H   0  0  0  0  0  0  0  0  0  0  0  0
  1  2  1  0
  2  3  2  0
  3  4  1  0
  4  5  2  0
  5  6  1  0
  6  7  2  0
  7  8  1  0
  8  9  2  0
  9 10  1  0
 10 11  2  0
 11 12  1  0
 12 13  2  0
 13 14  1  0
 14 15  2  0
 15 16  1  0
 16 17  2  0
 17 18  1  0
 18 19  2  0
 16 20  1  0
 20 21  1  0
 21 22  1  0
  6 23  1  0
 23 24  1  0
 24 25  1  0
 19  2  1  0
  9  4  1  0
 19 10  1  0
 25  5  1  0
 18 13  1  0
 22 15  1  0
  1 26  1  0
  1 27  1  0
  1 28  1  0
  3 29  1  0
  7 30  1  0
  8 31  1  0
 11 32  1  0
 12 33  1  0
 14 34  1  0
 17 35  1  0
 21 36  1  0
 21 37  1  0
 24 38  1  0
 24 39  1  0
M  CHG  1   2   1
M  END
>  <meeko>  (4) 
{"is_sidechain": [false], "free_energy": -7.918, "intermolecular_energy": -7.918, "internal_energy": 0.0}

$$$$
SANGUINARINE_5154_out
     RDKit          3D

 39 44  0  0  0  0  0  0  0  0999 V2000
   28.4860   73.1890   18.1280 C   0  0  0  0  0  0  0  0  0  0  0  0
   29.8010   73.5360   18.6690 N   0  0  0  0  0  0  0  0  0  0  0  0
   29.6350   74.4740   19.6040 C   0  0  0  0  0  0  0  0  0  0  0  0
   30.7220   75.0010   20.2860 C   0  0  0  0  0  0  0  0  0  0  0  0
   30.5690   75.9810   21.2650 C   0  0  0  0  0  0  0  0  0  0  0  0
   31.6400   76.5090   21.9440 C   0  0  0  0  0  0  0  0  0  0  0  0
   32.9230   76.0910   21.6910 C   0  0  0  0  0  0  0  0  0  0  0  0
   33.1060   75.1070   20.7120 C   0  0  0  0  0  0  0  0  0  0  0  0
   32.0200   74.5310   19.9810 C   0  0  0  0  0  0  0  0  0  0  0  0
   32.1570   73.5210   18.9690 C   0  0  0  0  0  0  0  0  0  0  0  0
   33.3950   72.9760   18.5780 C   0  0  0  0  0  0  0  0  0  0  0  0
   33.4950   71.9960   17.5890 C   0  0  0  0  0  0  0  0  0  0  0  0
   32.3600   71.5080   16.9420 C   0  0  0  0  0  0  0  0  0  0  0  0
   32.5030   70.5190   15.9510 C   0  0  0  0  0  0  0  0  0  0  0  0
   31.3730   70.0480   15.3220 C   0  0  0  0  0  0  0  0  0  0  0  0
   30.1290   70.5220   15.6420 C   0  0  0  0  0  0  0  0  0  0  0  0
   29.9500   71.4920   16.6090 C   0  0  0  0  0  0  0  0  0  0  0  0
   31.0770   72.0190   17.2930 C   0  0  0  0  0  0  0  0  0  0  0  0
   30.9970   73.0240   18.3070 C   0  0  0  0  0  0  0  0  0  0  0  0
   29.1450   69.9300   14.9120 O   0  0  0  0  0  0  0  0  0  0  0  0
   29.9150   69.0280   14.0930 C   0  0  0  0  0  0  0  0  0  0  0  0
   31.3330   69.0980   14.3480 O   0  0  0  0  0  0  0  0  0  0  0  0
   31.2740   77.4500   22.8530 O   0  0  0  0  0  0  0  0  0  0  0  0
   29.8450   77.4630   22.6770 C   0  0  0  0  0  0  0  0  0  0  0  0
   29.3900   76.5370   21.6720 O   0  0  0  0  0  0  0  0  0  0  0  0
   27.7859   73.0043   18.9561 H   0  0  0  0  0  0  0  0  0  0  0  0
   28.1127   74.0194   17.5106 H   0  0  0  0  0  0  0  0  0  0  0  0
   28.5711   72.2826   17.5106 H   0  0  0  0  0  0  0  0  0  0  0  0
   28.6221   74.8342   19.8370 H   0  0  0  0  0  0  0  0  0  0  0  0
   33.7778   76.5146   22.2386 H   0  0  0  0  0  0  0  0  0  0  0  0
   34.1280   74.7624   20.4959 H   0  0  0  0  0  0  0  0  0  0  0  0
   34.3127   73.3339   19.0676 H   0  0  0  0  0  0  0  0  0  0  0  0
   34.4850   71.6023   17.3155 H   0  0  0  0  0  0  0  0  0  0  0  0
   33.4971   70.1305   15.6847 H   0  0  0  0  0  0  0  0  0  0  0  0
   28.9393   71.8544   16.8479 H   0  0  0  0  0  0  0  0  0  0  0  0
   29.5748   68.0006   14.2897 H   0  0  0  0  0  0  0  0  0  0  0  0
   29.7567   69.3225   13.0451 H   0  0  0  0  0  0  0  0  0  0  0  0
   29.3721   77.2001   23.6347 H   0  0  0  0  0  0  0  0  0  0  0  0
   29.5654   78.4729   22.3424 H   0  0  0  0  0  0  0  0  0  0  0  0
  1  2  1  0
  2  3  2  0
  3  4  1  0
  4  5  2  0
  5  6  1  0
  6  7  2  0
  7  8  1  0
  8  9  2  0
  9 10  1  0
 10 11  2  0
 11 12  1  0
 12 13  2  0
 13 14  1  0
 14 15  2  0
 15 16  1  0
 16 17  2  0
 17 18  1  0
 18 19  2  0
 16 20  1  0
 20 21  1  0
 21 22  1  0
  6 23  1  0
 23 24  1  0
 24 25  1  0
 19  2  1  0
  9  4  1  0
 19 10  1  0
 25  5  1  0
 18 13  1  0
 22 15  1  0
  1 26  1  0
  1 27  1  0
  1 28  1  0
  3 29  1  0
  7 30  1  0
  8 31  1  0
 11 32  1  0
 12 33  1  0
 14 34  1  0
 17 35  1  0
 21 36  1  0
 21 37  1  0
 24 38  1  0
 24 39  1  0
M  CHG  1   2   1
M  END
>  <meeko>  (5) 
{"is_sidechain": [false], "free_energy": -7.777, "intermolecular_energy": -7.777, "internal_energy": 0.0}

$$$$
SANGUINARINE_5154_out
     RDKit          3D

 39 44  0  0  0  0  0  0  0  0999 V2000
   31.4490   75.8950   16.7070 C   0  0  0  0  0  0  0  0  0  0  0  0
   31.6960   76.2690   18.0990 N   0  0  0  0  0  0  0  0  0  0  0  0
   32.2130   77.4990   18.1170 C   0  0  0  0  0  0  0  0  0  0  0  0
   32.5550   78.1120   19.3140 C   0  0  0  0  0  0  0  0  0  0  0  0
   33.0980   79.3960   19.3510 C   0  0  0  0  0  0  0  0  0  0  0  0
   33.4400   80.0090   20.5320 C   0  0  0  0  0  0  0  0  0  0  0  0
   33.2610   79.3830   21.7410 C   0  0  0  0  0  0  0  0  0  0  0  0
   32.7180   78.0930   21.7320 C   0  0  0  0  0  0  0  0  0  0  0  0
   32.3480   77.4170   20.5260 C   0  0  0  0  0  0  0  0  0  0  0  0
   31.7890   76.0960   20.4660 C   0  0  0  0  0  0  0  0  0  0  0  0
   31.5380   75.3060   21.6050 C   0  0  0  0  0  0  0  0  0  0  0  0
   30.9940   74.0230   21.5120 C   0  0  0  0  0  0  0  0  0  0  0  0
   30.6710   73.4650   20.2760 C   0  0  0  0  0  0  0  0  0  0  0  0
   30.1250   72.1700   20.2240 C   0  0  0  0  0  0  0  0  0  0  0  0
   29.8110   71.6340   18.9960 C   0  0  0  0  0  0  0  0  0  0  0  0
   30.0220   72.3340   17.8390 C   0  0  0  0  0  0  0  0  0  0  0  0
   30.5570   73.6080   17.8500 C   0  0  0  0  0  0  0  0  0  0  0  0
   30.9010   74.2150   19.0850 C   0  0  0  0  0  0  0  0  0  0  0  0
   31.4610   75.5260   19.2020 C   0  0  0  0  0  0  0  0  0  0  0  0
   29.6470   71.6350   16.7340 O   0  0  0  0  0  0  0  0  0  0  0  0
   29.1760   70.4100   17.3310 C   0  0  0  0  0  0  0  0  0  0  0  0
   29.2780   70.4030   18.7690 O   0  0  0  0  0  0  0  0  0  0  0  0
   33.9520   81.2550   20.3490 O   0  0  0  0  0  0  0  0  0  0  0  0
   33.8970   81.3670   18.9140 C   0  0  0  0  0  0  0  0  0  0  0  0
   33.3580   80.1930   18.2740 O   0  0  0  0  0  0  0  0  0  0  0  0
   30.8430   74.9775   16.6758 H   0  0  0  0  0  0  0  0  0  0  0  0
   30.9096   76.7081   16.1990 H   0  0  0  0  0  0  0  0  0  0  0  0
   32.4085   75.7181   16.1990 H   0  0  0  0  0  0  0  0  0  0  0  0
   32.3704   78.0348   17.1693 H   0  0  0  0  0  0  0  0  0  0  0  0
   33.5350   79.8783   22.6842 H   0  0  0  0  0  0  0  0  0  0  0  0
   32.5694   77.5771   22.6921 H   0  0  0  0  0  0  0  0  0  0  0  0
   31.7779   75.7123   22.5987 H   0  0  0  0  0  0  0  0  0  0  0  0
   30.8174   73.4429   22.4298 H   0  0  0  0  0  0  0  0  0  0  0  0
   29.9523   71.5968   21.1468 H   0  0  0  0  0  0  0  0  0  0  0  0
   30.7154   74.1490   16.9054 H   0  0  0  0  0  0  0  0  0  0  0  0
   28.1205   70.2697   17.0547 H   0  0  0  0  0  0  0  0  0  0  0  0
   29.8135   69.5966   16.9542 H   0  0  0  0  0  0  0  0  0  0  0  0
   33.2643   82.2286   18.6544 H   0  0  0  0  0  0  0  0  0  0  0  0
   34.9296   81.4904   18.5555 H   0  0  0  0  0  0  0  0  0  0  0  0
  1  2  1  0
  2  3  2  0
  3  4  1  0
  4  5  2  0
  5  6  1  0
  6  7  2  0
  7  8  1  0
  8  9  2  0
  9 10  1  0
 10 11  2  0
 11 12  1  0
 12 13  2  0
 13 14  1  0
 14 15  2  0
 15 16  1  0
 16 17  2  0
 17 18  1  0
 18 19  2  0
 16 20  1  0
 20 21  1  0
 21 22  1  0
  6 23  1  0
 23 24  1  0
 24 25  1  0
 19  2  1  0
  9  4  1  0
 19 10  1  0
 25  5  1  0
 18 13  1  0
 22 15  1  0
  1 26  1  0
  1 27  1  0
  1 28  1  0
  3 29  1  0
  7 30  1  0
  8 31  1  0
 11 32  1  0
 12 33  1  0
 14 34  1  0
 17 35  1  0
 21 36  1  0
 21 37  1  0
 24 38  1  0
 24 39  1  0
M  CHG  1   2   1
M  END
>  <meeko>  (6) 
{"is_sidechain": [false], "free_energy": -7.098, "intermolecular_energy": -7.098, "internal_energy": 0.0}

$$$$
SANGUINARINE_5154_out
     RDKit          3D

 39 44  0  0  0  0  0  0  0  0999 V2000
   31.0400   73.9110   15.9930 C   0  0  0  0  0  0  0  0  0  0  0  0
   30.6130   74.3070   17.3350 N   0  0  0  0  0  0  0  0  0  0  0  0
   30.6250   75.6400   17.4020 C   0  0  0  0  0  0  0  0  0  0  0  0
   30.2700   76.2990   18.5710 C   0  0  0  0  0  0  0  0  0  0  0  0
   30.2780   77.6900   18.6600 C   0  0  0  0  0  0  0  0  0  0  0  0
   29.9280   78.3490   19.8130 C   0  0  0  0  0  0  0  0  0  0  0  0
   29.5490   77.6650   20.9410 C   0  0  0  0  0  0  0  0  0  0  0  0
   29.5320   76.2660   20.8790 C   0  0  0  0  0  0  0  0  0  0  0  0
   29.8900   75.5400   19.7000 C   0  0  0  0  0  0  0  0  0  0  0  0
   29.8880   74.1080   19.5880 C   0  0  0  0  0  0  0  0  0  0  0  0
   29.5300   73.2460   20.6430 C   0  0  0  0  0  0  0  0  0  0  0  0
   29.5410   71.8570   20.5030 C   0  0  0  0  0  0  0  0  0  0  0  0
   29.9080   71.2580   19.2980 C   0  0  0  0  0  0  0  0  0  0  0  0
   29.9060   69.8550   19.1970 C   0  0  0  0  0  0  0  0  0  0  0  0
   30.2710   69.2800   18.0010 C   0  0  0  0  0  0  0  0  0  0  0  0
   30.6320   70.0430   16.9240 C   0  0  0  0  0  0  0  0  0  0  0  0
   30.6470   71.4230   16.9860 C   0  0  0  0  0  0  0  0  0  0  0  0
   30.2820   72.0760   18.1920 C   0  0  0  0  0  0  0  0  0  0  0  0
   30.2660   73.4960   18.3580 C   0  0  0  0  0  0  0  0  0  0  0  0
   30.9560   69.2890   15.8390 O   0  0  0  0  0  0  0  0  0  0  0  0
   30.7570   67.9590   16.3590 C   0  0  0  0  0  0  0  0  0  0  0  0
   30.3210   67.9460   17.7340 O   0  0  0  0  0  0  0  0  0  0  0  0
   30.0030   79.7010   19.6900 O   0  0  0  0  0  0  0  0  0  0  0  0
   30.4410   79.8290   18.3240 C   0  0  0  0  0  0  0  0  0  0  0  0
   30.6190   78.5600   17.6650 O   0  0  0  0  0  0  0  0  0  0  0  0
   31.8446   73.1648   16.0695 H   0  0  0  0  0  0  0  0  0  0  0  0
   30.1875   73.4767   15.4502 H   0  0  0  0  0  0  0  0  0  0  0  0
   31.4090   74.7938   15.4502 H   0  0  0  0  0  0  0  0  0  0  0  0
   30.9204   76.2247   16.5183 H   0  0  0  0  0  0  0  0  0  0  0  0
   29.2683   78.1972   21.8618 H   0  0  0  0  0  0  0  0  0  0  0  0
   29.2308   75.7022   21.7742 H   0  0  0  0  0  0  0  0  0  0  0  0
   29.2322   73.6813   21.6083 H   0  0  0  0  0  0  0  0  0  0  0  0
   29.2556   71.2248   21.3567 H   0  0  0  0  0  0  0  0  0  0  0  0
   29.6188   69.2306   20.0558 H   0  0  0  0  0  0  0  0  0  0  0  0
   30.9404   72.0127   16.1050 H   0  0  0  0  0  0  0  0  0  0  0  0
   29.9958   67.4542   15.7460 H   0  0  0  0  0  0  0  0  0  0  0  0
   31.7280   67.4436   16.3190 H   0  0  0  0  0  0  0  0  0  0  0  0
   29.6895   80.4093   17.7686 H   0  0  0  0  0  0  0  0  0  0  0  0
   31.4201   80.3301   18.3397 H   0  0  0  0  0  0  0  0  0  0  0  0
  1  2  1  0
  2  3  2  0
  3  4  1  0
  4  5  2  0
  5  6  1  0
  6  7  2  0
  7  8  1  0
  8  9  2  0
  9 10  1  0
 10 11  2  0
 11 12  1  0
 12 13  2  0
 13 14  1  0
 14 15  2  0
 15 16  1  0
 16 17  2  0
 17 18  1  0
 18 19  2  0
 16 20  1  0
 20 21  1  0
 21 22  1  0
  6 23  1  0
 23 24  1  0
 24 25  1  0
 19  2  1  0
  9  4  1  0
 19 10  1  0
 25  5  1  0
 18 13  1  0
 22 15  1  0
  1 26  1  0
  1 27  1  0
  1 28  1  0
  3 29  1  0
  7 30  1  0
  8 31  1  0
 11 32  1  0
 12 33  1  0
 14 34  1  0
 17 35  1  0
 21 36  1  0
 21 37  1  0
 24 38  1  0
 24 39  1  0
M  CHG  1   2   1
M  END
>  <meeko>  (7) 
{"is_sidechain": [false], "free_energy": -6.999, "intermolecular_energy": -6.999, "internal_energy": 0.0}

$$$$
SANGUINARINE_5154_out
     RDKit          3D

 39 44  0  0  0  0  0  0  0  0999 V2000
   30.3420   74.2940   21.2830 C   0  0  0  0  0  0  0  0  0  0  0  0
   31.0590   73.6410   20.1890 N   0  0  0  0  0  0  0  0  0  0  0  0
   30.5640   72.4100   20.0400 C   0  0  0  0  0  0  0  0  0  0  0  0
   31.0640   71.5530   19.0700 C   0  0  0  0  0  0  0  0  0  0  0  0
   30.5610   70.2640   18.9010 C   0  0  0  0  0  0  0  0  0  0  0  0
   31.0510   69.4090   17.9440 C   0  0  0  0  0  0  0  0  0  0  0  0
   32.0680   69.7860   17.1010 C   0  0  0  0  0  0  0  0  0  0  0  0
   32.5920   71.0750   17.2500 C   0  0  0  0  0  0  0  0  0  0  0  0
   32.1120   71.9970   18.2330 C   0  0  0  0  0  0  0  0  0  0  0  0
   32.6170   73.3280   18.4230 C   0  0  0  0  0  0  0  0  0  0  0  0
   33.6580   73.8820   17.6530 C   0  0  0  0  0  0  0  0  0  0  0  0
   34.1280   75.1800   17.8650 C   0  0  0  0  0  0  0  0  0  0  0  0
   33.5790   75.9910   18.8570 C   0  0  0  0  0  0  0  0  0  0  0  0
   34.0800   77.2930   19.0390 C   0  0  0  0  0  0  0  0  0  0  0  0
   33.5270   78.0810   20.0230 C   0  0  0  0  0  0  0  0  0  0  0  0
   32.5120   77.6220   20.8170 C   0  0  0  0  0  0  0  0  0  0  0  0
   31.9940   76.3490   20.6680 C   0  0  0  0  0  0  0  0  0  0  0  0
   32.5230   75.4880   19.6720 C   0  0  0  0  0  0  0  0  0  0  0  0
   32.0570   74.1560   19.4390 C   0  0  0  0  0  0  0  0  0  0  0  0
   32.1030   78.5490   21.7240 O   0  0  0  0  0  0  0  0  0  0  0  0
   32.9830   79.6470   21.4100 C   0  0  0  0  0  0  0  0  0  0  0  0
   33.8910   79.3560   20.3290 O   0  0  0  0  0  0  0  0  0  0  0  0
   30.4250   68.2020   17.9460 O   0  0  0  0  0  0  0  0  0  0  0  0
   29.4770   68.3860   19.0140 C   0  0  0  0  0  0  0  0  0  0  0  0
   29.5570   69.6890   19.6250 O   0  0  0  0  0  0  0  0  0  0  0  0
   30.7359   73.9352   22.2453 H   0  0  0  0  0  0  0  0  0  0  0  0
   30.4800   75.3831   21.2134 H   0  0  0  0  0  0  0  0  0  0  0  0
   29.2705   74.0550   21.2134 H   0  0  0  0  0  0  0  0  0  0  0  0
   29.7484   72.0704   20.6954 H   0  0  0  0  0  0  0  0  0  0  0  0
   32.4570   69.0985   16.3354 H   0  0  0  0  0  0  0  0  0  0  0  0
   33.4072   71.3927   16.5833 H   0  0  0  0  0  0  0  0  0  0  0  0
   34.1155   73.2730   16.8594 H   0  0  0  0  0  0  0  0  0  0  0  0
   34.9447   75.5687   17.2390 H   0  0  0  0  0  0  0  0  0  0  0  0
   34.8968   77.6735   18.4080 H   0  0  0  0  0  0  0  0  0  0  0  0
   31.1760   76.0054   21.3182 H   0  0  0  0  0  0  0  0  0  0  0  0
   32.3706   80.5161   21.1278 H   0  0  0  0  0  0  0  0  0  0  0  0
   33.5922   79.8436   22.3045 H   0  0  0  0  0  0  0  0  0  0  0  0
   28.4632   68.2513   18.6089 H   0  0  0  0  0  0  0  0  0  0  0  0
   29.7125   67.6448   19.7919 H   0  0  0  0  0  0  0  0  0  0  0  0
  1  2  1  0
  2  3  2  0
  3  4  1  0
  4  5  2  0
  5  6  1  0
  6  7  2  0
  7  8  1  0
  8  9  2  0
  9 10  1  0
 10 11  2  0
 11 12  1  0
 12 13  2  0
 13 14  1  0
 14 15  2  0
 15 16  1  0
 16 17  2  0
 17 18  1  0
 18 19  2  0
 16 20  1  0
 20 21  1  0
 21 22  1  0
  6 23  1  0
 23 24  1  0
 24 25  1  0
 19  2  1  0
  9  4  1  0
 19 10  1  0
 25  5  1  0
 18 13  1  0
 22 15  1  0
  1 26  1  0
  1 27  1  0
  1 28  1  0
  3 29  1  0
  7 30  1  0
  8 31  1  0
 11 32  1  0
 12 33  1  0
 14 34  1  0
 17 35  1  0
 21 36  1  0
 21 37  1  0
 24 38  1  0
 24 39  1  0
M  CHG  1   2   1
M  END
>  <meeko>  (8) 
{"is_sidechain": [false], "free_energy": -6.928, "intermolecular_energy": -6.928, "internal_energy": 0.0}

$$$$
SANGUINARINE_5154_out
     RDKit          3D

 39 44  0  0  0  0  0  0  0  0999 V2000
   29.4480   79.2370   18.3590 C   0  0  0  0  0  0  0  0  0  0  0  0
   30.4510   78.7330   19.2970 N   0  0  0  0  0  0  0  0  0  0  0  0
   29.9750   77.6220   19.8620 C   0  0  0  0  0  0  0  0  0  0  0  0
   30.7170   76.9270   20.8070 C   0  0  0  0  0  0  0  0  0  0  0  0
   30.2360   75.7650   21.4090 C   0  0  0  0  0  0  0  0  0  0  0  0
   30.9650   75.0730   22.3440 C   0  0  0  0  0  0  0  0  0  0  0  0
   32.2120   75.4930   22.7340 C   0  0  0  0  0  0  0  0  0  0  0  0
   32.7200   76.6570   22.1450 C   0  0  0  0  0  0  0  0  0  0  0  0
   31.9950   77.4100   21.1680 C   0  0  0  0  0  0  0  0  0  0  0  0
   32.4740   78.6080   20.5360 C   0  0  0  0  0  0  0  0  0  0  0  0
   33.7280   79.1850   20.8140 C   0  0  0  0  0  0  0  0  0  0  0  0
   34.1630   80.3530   20.1840 C   0  0  0  0  0  0  0  0  0  0  0  0
   33.3660   81.0020   19.2420 C   0  0  0  0  0  0  0  0  0  0  0  0
   33.8400   82.1760   18.6290 C   0  0  0  0  0  0  0  0  0  0  0  0
   33.0410   82.8040   17.7000 C   0  0  0  0  0  0  0  0  0  0  0  0
   31.8090   82.3110   17.3710 C   0  0  0  0  0  0  0  0  0  0  0  0
   31.3090   81.1610   17.9520 C   0  0  0  0  0  0  0  0  0  0  0  0
   32.0850   80.4680   18.9170 C   0  0  0  0  0  0  0  0  0  0  0  0
   31.6580   79.2720   19.5750 C   0  0  0  0  0  0  0  0  0  0  0  0
   31.1780   83.0720   16.4360 O   0  0  0  0  0  0  0  0  0  0  0  0
   32.1590   84.1050   16.2160 C   0  0  0  0  0  0  0  0  0  0  0  0
   33.3460   83.9410   17.0170 O   0  0  0  0  0  0  0  0  0  0  0  0
   30.3150   73.9720   22.8070 O   0  0  0  0  0  0  0  0  0  0  0  0
   29.0880   74.0410   22.0580 C   0  0  0  0  0  0  0  0  0  0  0  0
   29.0280   75.1750   21.1700 O   0  0  0  0  0  0  0  0  0  0  0  0
   28.6024   79.6619   18.9197 H   0  0  0  0  0  0  0  0  0  0  0  0
   29.8970   80.0166   17.7260 H   0  0  0  0  0  0  0  0  0  0  0  0
   29.0904   78.4115   17.7260 H   0  0  0  0  0  0  0  0  0  0  0  0
   28.9800   77.2514   19.5747 H   0  0  0  0  0  0  0  0  0  0  0  0
   32.7921   74.9345   23.4833 H   0  0  0  0  0  0  0  0  0  0  0  0
   33.7183   77.0074   22.4459 H   0  0  0  0  0  0  0  0  0  0  0  0
   34.3857   78.7005   21.5506 H   0  0  0  0  0  0  0  0  0  0  0  0
   35.1504   80.7676   20.4351 H   0  0  0  0  0  0  0  0  0  0  0  0
   34.8286   82.5839   18.8865 H   0  0  0  0  0  0  0  0  0  0  0  0
   30.3150   80.7850   17.6680 H   0  0  0  0  0  0  0  0  0  0  0  0
   32.4487   84.0917   15.1549 H   0  0  0  0  0  0  0  0  0  0  0  0
   31.6981   85.0606   16.5066 H   0  0  0  0  0  0  0  0  0  0  0  0
   28.9914   73.1230   21.4598 H   0  0  0  0  0  0  0  0  0  0  0  0
   28.2680   74.1497   22.7831 H   0  0  0  0  0  0  0  0  0  0  0  0
  1  2  1  0
  2  3  2  0
  3  4  1  0
  4  5  2  0
  5  6  1  0
  6  7  2  0
  7  8  1  0
  8  9  2  0
  9 10  1  0
 10 11  2  0
 11 12  1  0
 12 13  2  0
 13 14  1  0
 14 15  2  0
 15 16  1  0
 16 17  2  0
 17 18  1  0
 18 19  2  0
 16 20  1  0
 20 21  1  0
 21 22  1  0
  6 23  1  0
 23 24  1  0
 24 25  1  0
 19  2  1  0
  9  4  1  0
 19 10  1  0
 25  5  1  0
 18 13  1  0
 22 15  1  0
  1 26  1  0
  1 27  1  0
  1 28  1  0
  3 29  1  0
  7 30  1  0
  8 31  1  0
 11 32  1  0
 12 33  1  0
 14 34  1  0
 17 35  1  0
 21 36  1  0
 21 37  1  0
 24 38  1  0
 24 39  1  0
M  CHG  1   2   1
M  END
>  <meeko>  (9) 
{"is_sidechain": [false], "free_energy": -6.815, "intermolecular_energy": -6.815, "internal_energy": 0.0}

$$$$
