SCHEMBL29564401_10008594_out
     RDKit          3D

 88 92  0  0  0  0  0  0  0  0999 V2000
   28.0750   73.5720   18.9450 C   0  0  0  0  0  0  0  0  0  0  0  0
   29.6110   73.3790   19.0390 C   0  0  2  0  0  0  0  0  0  0  0  0
   30.1390   72.9840   17.6290 C   0  0  0  0  0  0  0  0  0  0  0  0
   29.6630   71.6080   17.1610 C   0  0  0  0  0  0  0  0  0  0  0  0
   29.9750   70.5100   18.1720 C   0  0  2  0  0  0  0  0  0  0  0  0
   29.3700   69.2990   17.7300 O   0  0  0  0  0  0  0  0  0  0  0  0
   30.2050   68.4090   17.1120 C   0  0  0  0  0  0  0  0  0  0  0  0
   30.0330   67.9200   16.0030 O   0  0  0  0  0  0  0  0  0  0  0  0
   31.3710   68.0840   18.0170 C   0  0  0  0  0  0  0  0  0  0  0  0
   32.7230   68.4720   17.4130 C   0  0  0  0  0  0  0  0  0  0  0  0
   33.4760   69.5470   18.2100 C   0  0  0  0  0  0  0  0  0  0  0  0
   33.5690   70.8870   17.5260 C   0  0  0  0  0  0  0  0  0  0  0  0
   33.6320   70.9570   16.1350 C   0  0  0  0  0  0  0  0  0  0  0  0
   33.7190   72.1980   15.5030 C   0  0  0  0  0  0  0  0  0  0  0  0
   33.7410   73.3680   16.2620 C   0  0  0  0  0  0  0  0  0  0  0  0
   33.8270   74.6220   15.6230 N   0  0  0  0  0  0  0  0  0  0  0  0
   33.1370   74.8560   14.3700 C   0  0  0  0  0  0  0  0  0  0  0  0
   31.6570   75.1110   14.6020 C   0  0  0  0  0  0  0  0  0  0  0  0
   30.6770   73.6820   14.1860 Cl  0  0  0  0  0  0  0  0  0  0  0  0
   34.6180   75.6890   16.2030 C   0  0  0  0  0  0  0  0  0  0  0  0
   33.7320   76.6970   16.9190 C   0  0  0  0  0  0  0  0  0  0  0  0
   34.0060   76.6680   18.6790 Cl  0  0  0  0  0  0  0  0  0  0  0  0
   33.6770   73.2970   17.6530 C   0  0  0  0  0  0  0  0  0  0  0  0
   33.5910   72.0570   18.2860 C   0  0  0  0  0  0  0  0  0  0  0  0
   29.4720   70.8550   19.5730 C   0  0  0  0  0  0  0  0  0  0  0  0
   29.9900   72.2260   20.0230 C   0  0  2  0  0  0  0  0  0  0  0  0
   29.5710   72.5380   21.4630 C   0  0  0  0  0  0  0  0  0  0  0  0
   30.2600   73.8110   21.9460 C   0  0  0  0  0  0  0  0  0  0  0  0
   29.9900   75.0180   21.0300 C   0  0  1  0  0  0  0  0  0  0  0  0
   30.6930   76.3140   21.5430 C   0  0  1  0  0  0  0  0  0  0  0  0
   32.2160   76.1610   21.7200 C   0  0  0  0  0  0  0  0  0  0  0  0
   32.8110   77.4120   22.3430 C   0  0  0  0  0  0  0  0  0  0  0  0
   32.4360   78.6910   21.6420 C   0  0  0  0  0  0  0  0  0  0  0  0
   33.1470   79.6930   21.7350 O   0  0  0  0  0  0  0  0  0  0  0  0
   31.2250   78.7040   20.9930 N   0  0  0  0  0  0  0  0  0  0  0  0
   30.4010   77.5370   20.6270 C   0  0  2  0  0  0  0  0  0  0  0  0
   28.9290   77.9760   20.7680 C   0  0  0  0  0  0  0  0  0  0  0  0
   30.7130   77.1940   19.1530 C   0  0  0  0  0  0  0  0  0  0  0  0
   30.0240   75.9250   18.6560 C   0  0  0  0  0  0  0  0  0  0  0  0
   30.3180   74.7000   19.5430 C   0  0  2  0  0  0  0  0  0  0  0  0
   27.6495   73.6255   19.9580 H   0  0  0  0  0  0  0  0  0  0  0  0
   27.8550   74.5048   18.4052 H   0  0  0  0  0  0  0  0  0  0  0  0
   27.6311   72.7226   18.4052 H   0  0  0  0  0  0  0  0  0  0  0  0
   29.7935   73.7365   16.9048 H   0  0  0  0  0  0  0  0  0  0  0  0
   31.2361   72.9407   17.6956 H   0  0  0  0  0  0  0  0  0  0  0  0
   28.5748   71.6451   17.0044 H   0  0  0  0  0  0  0  0  0  0  0  0
   30.1964   71.3676   16.2295 H   0  0  0  0  0  0  0  0  0  0  0  0
   31.0677   70.4012   18.2364 H   0  0  0  0  0  0  0  0  0  0  0  0
   31.2414   68.6275   18.9645 H   0  0  0  0  0  0  0  0  0  0  0  0
   31.3779   66.9942   18.1664 H   0  0  0  0  0  0  0  0  0  0  0  0
   33.3526   67.5712   17.3662 H   0  0  0  0  0  0  0  0  0  0  0  0
   32.5182   68.8967   16.4192 H   0  0  0  0  0  0  0  0  0  0  0  0
   32.9582   69.6874   19.1703 H   0  0  0  0  0  0  0  0  0  0  0  0
   34.5080   69.1838   18.3245 H   0  0  0  0  0  0  0  0  0  0  0  0
   33.6131   70.0345   15.5361 H   0  0  0  0  0  0  0  0  0  0  0  0
   33.7703   72.2536   14.4056 H   0  0  0  0  0  0  0  0  0  0  0  0
   33.5795   75.7325   13.8740 H   0  0  0  0  0  0  0  0  0  0  0  0
   33.2435   73.9612   13.7391 H   0  0  0  0  0  0  0  0  0  0  0  0
   31.4983   75.3573   15.6623 H   0  0  0  0  0  0  0  0  0  0  0  0
   31.3443   75.9447   13.9561 H   0  0  0  0  0  0  0  0  0  0  0  0
   35.3288   75.2588   16.9239 H   0  0  0  0  0  0  0  0  0  0  0  0
   35.1550   76.2065   15.3944 H   0  0  0  0  0  0  0  0  0  0  0  0
   33.9561   77.7044   16.5384 H   0  0  0  0  0  0  0  0  0  0  0  0
   32.6816   76.4323   16.7276 H   0  0  0  0  0  0  0  0  0  0  0  0
   33.6943   74.2196   18.2517 H   0  0  0  0  0  0  0  0  0  0  0  0
   33.5406   72.0015   19.3834 H   0  0  0  0  0  0  0  0  0  0  0  0
   28.3721   70.8710   19.5661 H   0  0  0  0  0  0  0  0  0  0  0  0
   29.8430   70.0936   20.2749 H   0  0  0  0  0  0  0  0  0  0  0  0
   31.0881   72.1651   20.0015 H   0  0  0  0  0  0  0  0  0  0  0  0
   28.4806   72.6772   21.5025 H   0  0  0  0  0  0  0  0  0  0  0  0
   29.8654   71.7007   22.1128 H   0  0  0  0  0  0  0  0  0  0  0  0
   29.8942   74.0473   22.9561 H   0  0  0  0  0  0  0  0  0  0  0  0
   31.3441   73.6248   21.9385 H   0  0  0  0  0  0  0  0  0  0  0  0
   28.9100   75.2226   21.0715 H   0  0  0  0  0  0  0  0  0  0  0  0
   30.2587   76.4917   22.5379 H   0  0  0  0  0  0  0  0  0  0  0  0
   32.4191   75.3000   22.3738 H   0  0  0  0  0  0  0  0  0  0  0  0
   32.6736   76.0053   20.7319 H   0  0  0  0  0  0  0  0  0  0  0  0
   32.4650   77.4760   23.3852 H   0  0  0  0  0  0  0  0  0  0  0  0
   33.9037   77.3161   22.2608 H   0  0  0  0  0  0  0  0  0  0  0  0
   30.8520   79.6300   20.7350 H   0  0  0  0  0  0  0  0  0  0  0  0
   28.6699   78.0533   21.8343 H   0  0  0  0  0  0  0  0  0  0  0  0
   28.7904   78.9546   20.2851 H   0  0  0  0  0  0  0  0  0  0  0  0
   28.2770   77.2332   20.2851 H   0  0  0  0  0  0  0  0  0  0  0  0
   30.3855   78.0352   18.5244 H   0  0  0  0  0  0  0  0  0  0  0  0
   31.7966   77.0165   19.0880 H   0  0  0  0  0  0  0  0  0  0  0  0
   28.9376   76.0969   18.6429 H   0  0  0  0  0  0  0  0  0  0  0  0
   30.4147   75.7078   17.6509 H   0  0  0  0  0  0  0  0  0  0  0  0
   31.3954   74.4921   19.4651 H   0  0  0  0  0  0  0  0  0  0  0  0
  2  1  1  6
  2  3  1  0
  3  4  1  0
  4  5  1  0
  5  6  1  0
  6  7  1  0
  7  8  2  0
  7  9  1  0
  9 10  1  0
 10 11  1  0
 11 12  1  0
 12 13  1  0
 13 14  2  0
 14 15  1  0
 15 16  1  0
 16 17  1  0
 17 18  1  0
 18 19  1  0
 16 20  1  0
 20 21  1  0
 21 22  1  0
 15 23  2  0
 23 24  1  0
  5 25  1  0
 25 26  1  0
 26 27  1  0
 27 28  1  0
 28 29  1  0
 29 30  1  0
 30 31  1  0
 31 32  1  0
 32 33  1  0
 33 34  2  0
 33 35  1  0
 35 36  1  0
 36 37  1  6
 36 38  1  0
 38 39  1  0
 39 40  1  0
 26  2  1  0
 40 29  1  0
 40  2  1  0
 24 12  2  0
 36 30  1  0
  1 41  1  0
  1 42  1  0
  1 43  1  0
  3 44  1  0
  3 45  1  0
  4 46  1  0
  4 47  1  0
  5 48  1  1
  9 49  1  0
  9 50  1  0
 10 51  1  0
 10 52  1  0
 11 53  1  0
 11 54  1  0
 13 55  1  0
 14 56  1  0
 17 57  1  0
 17 58  1  0
 18 59  1  0
 18 60  1  0
 20 61  1  0
 20 62  1  0
 21 63  1  0
 21 64  1  0
 23 65  1  0
 24 66  1  0
 25 67  1  0
 25 68  1  0
 26 69  1  1
 27 70  1  0
 27 71  1  0
 28 72  1  0
 28 73  1  0
 29 74  1  6
 30 75  1  1
 31 76  1  0
 31 77  1  0
 32 78  1  0
 32 79  1  0
 35 80  1  0
 37 81  1  0
 37 82  1  0
 37 83  1  0
 38 84  1  0
 38 85  1  0
 39 86  1  0
 39 87  1  0
 40 88  1  1
M  END
>  <meeko>  (1) 
{"is_sidechain": [false], "free_energy": -7.406, "intermolecular_energy": -12.169, "internal_energy": -3.583}

$$$$
SCHEMBL29564401_10008594_out
     RDKit          3D

 88 92  0  0  0  0  0  0  0  0999 V2000
   27.8960   72.5740   19.3360 C   0  0  0  0  0  0  0  0  0  0  0  0
   29.4240   72.7530   19.5400 C   0  0  2  0  0  0  0  0  0  0  0  0
   29.7170   72.7260   21.0690 C   0  0  0  0  0  0  0  0  0  0  0  0
   29.1400   73.9260   21.8230 C   0  0  0  0  0  0  0  0  0  0  0  0
   29.5810   75.2560   21.2210 C   0  0  2  0  0  0  0  0  0  0  0  0
   28.8860   76.3080   21.8840 O   0  0  0  0  0  0  0  0  0  0  0  0
   29.5500   77.5020   21.9610 C   0  0  0  0  0  0  0  0  0  0  0  0
   29.2990   78.5020   21.3030 O   0  0  0  0  0  0  0  0  0  0  0  0
   30.6750   77.4000   22.9660 C   0  0  0  0  0  0  0  0  0  0  0  0
   32.0500   77.6790   22.3540 C   0  0  0  0  0  0  0  0  0  0  0  0
   32.8220   76.4130   21.9540 C   0  0  0  0  0  0  0  0  0  0  0  0
   32.9260   76.1840   20.4680 C   0  0  0  0  0  0  0  0  0  0  0  0
   33.3570   74.9500   19.9810 C   0  0  0  0  0  0  0  0  0  0  0  0
   33.4550   74.7400   18.6060 C   0  0  0  0  0  0  0  0  0  0  0  0
   33.1200   75.7620   17.7180 C   0  0  0  0  0  0  0  0  0  0  0  0
   33.2170   75.5480   16.3270 N   0  0  0  0  0  0  0  0  0  0  0  0
   34.2200   74.6500   15.7910 C   0  0  0  0  0  0  0  0  0  0  0  0
   33.6370   73.7700   14.6970 C   0  0  0  0  0  0  0  0  0  0  0  0
   34.8200   72.5620   14.1350 Cl  0  0  0  0  0  0  0  0  0  0  0  0
   32.3230   76.2330   15.4150 C   0  0  0  0  0  0  0  0  0  0  0  0
   33.0500   77.3430   14.6710 C   0  0  0  0  0  0  0  0  0  0  0  0
   32.3920   78.9450   15.0880 Cl  0  0  0  0  0  0  0  0  0  0  0  0
   32.6880   76.9950   18.2050 C   0  0  0  0  0  0  0  0  0  0  0  0
   32.5920   77.2060   19.5800 C   0  0  0  0  0  0  0  0  0  0  0  0
   29.3110   75.3280   19.7190 C   0  0  0  0  0  0  0  0  0  0  0  0
   29.9240   74.1270   18.9900 C   0  0  2  0  0  0  0  0  0  0  0  0
   29.7420   74.2390   17.4740 C   0  0  0  0  0  0  0  0  0  0  0  0
   30.5280   73.1390   16.7670 C   0  0  0  0  0  0  0  0  0  0  0  0
   30.1470   71.7290   17.2560 C   0  0  1  0  0  0  0  0  0  0  0  0
   30.9510   70.6140   16.5160 C   0  0  1  0  0  0  0  0  0  0  0  0
   32.4790   70.7780   16.6290 C   0  0  0  0  0  0  0  0  0  0  0  0
   33.1940   69.7390   15.7830 C   0  0  0  0  0  0  0  0  0  0  0  0
   32.7440   68.3220   16.0300 C   0  0  0  0  0  0  0  0  0  0  0  0
   33.4840   67.3720   15.7720 O   0  0  0  0  0  0  0  0  0  0  0  0
   31.4470   68.1540   16.4520 N   0  0  0  0  0  0  0  0  0  0  0  0
   30.5490   69.1900   16.9970 C   0  0  2  0  0  0  0  0  0  0  0  0
   29.1280   68.8390   16.5100 C   0  0  0  0  0  0  0  0  0  0  0  0
   30.6190   69.1000   18.5370 C   0  0  0  0  0  0  0  0  0  0  0  0
   29.8310   70.1930   19.2550 C   0  0  0  0  0  0  0  0  0  0  0  0
   30.2310   71.6120   18.8040 C   0  0  2  0  0  0  0  0  0  0  0  0
   27.3996   72.5158   20.3159 H   0  0  0  0  0  0  0  0  0  0  0  0
   27.4982   73.4317   18.7738 H   0  0  0  0  0  0  0  0  0  0  0  0
   27.7072   71.6476   18.7738 H   0  0  0  0  0  0  0  0  0  0  0  0
   29.2817   71.8080   21.4906 H   0  0  0  0  0  0  0  0  0  0  0  0
   30.8097   72.7635   21.1895 H   0  0  0  0  0  0  0  0  0  0  0  0
   28.0419   73.8697   21.7897 H   0  0  0  0  0  0  0  0  0  0  0  0
   29.5139   73.8847   22.8567 H   0  0  0  0  0  0  0  0  0  0  0  0
   30.6676   75.3545   21.3611 H   0  0  0  0  0  0  0  0  0  0  0  0
   30.4944   78.1291   23.7697 H   0  0  0  0  0  0  0  0  0  0  0  0
   30.6862   76.3670   23.3440 H   0  0  0  0  0  0  0  0  0  0  0  0
   31.9100   78.2976   21.4553 H   0  0  0  0  0  0  0  0  0  0  0  0
   32.6465   78.1857   23.1270 H   0  0  0  0  0  0  0  0  0  0  0  0
   33.8409   76.4896   22.3614 H   0  0  0  0  0  0  0  0  0  0  0  0
   32.2568   75.5618   22.3615 H   0  0  0  0  0  0  0  0  0  0  0  0
   33.6194   74.1432   20.6811 H   0  0  0  0  0  0  0  0  0  0  0  0
   33.7967   73.7677   18.2214 H   0  0  0  0  0  0  0  0  0  0  0  0
   35.0467   75.2430   15.3728 H   0  0  0  0  0  0  0  0  0  0  0  0
   34.5812   74.0036   16.6044 H   0  0  0  0  0  0  0  0  0  0  0  0
   32.7523   73.2483   15.0908 H   0  0  0  0  0  0  0  0  0  0  0  0
   33.3653   74.4108   13.8452 H   0  0  0  0  0  0  0  0  0  0  0  0
   31.9288   75.5095   14.6862 H   0  0  0  0  0  0  0  0  0  0  0  0
   31.5029   76.6793   15.9967 H   0  0  0  0  0  0  0  0  0  0  0  0
   34.1167   77.3137   14.9381 H   0  0  0  0  0  0  0  0  0  0  0  0
   32.9132   77.1831   13.5913 H   0  0  0  0  0  0  0  0  0  0  0  0
   32.4230   77.8009   17.5048 H   0  0  0  0  0  0  0  0  0  0  0  0
   32.2526   78.1792   19.9644 H   0  0  0  0  0  0  0  0  0  0  0  0
   28.2242   75.3349   19.5493 H   0  0  0  0  0  0  0  0  0  0  0  0
   29.7696   76.2470   19.3252 H   0  0  0  0  0  0  0  0  0  0  0  0
   31.0035   74.1564   19.1992 H   0  0  0  0  0  0  0  0  0  0  0  0
   28.6746   74.1388   17.2277 H   0  0  0  0  0  0  0  0  0  0  0  0
   30.1140   75.2184   17.1389 H   0  0  0  0  0  0  0  0  0  0  0  0
   30.3291   73.2028   15.6870 H   0  0  0  0  0  0  0  0  0  0  0  0
   31.5933   73.2931   16.9939 H   0  0  0  0  0  0  0  0  0  0  0  0
   29.0916   71.5662   16.9920 H   0  0  0  0  0  0  0  0  0  0  0  0
   30.6809   70.7311   15.4561 H   0  0  0  0  0  0  0  0  0  0  0  0
   32.7611   71.7829   16.2816 H   0  0  0  0  0  0  0  0  0  0  0  0
   32.7727   70.6414   17.6802 H   0  0  0  0  0  0  0  0  0  0  0  0
   33.0178   69.9767   14.7236 H   0  0  0  0  0  0  0  0  0  0  0  0
   34.2575   69.7847   16.0601 H   0  0  0  0  0  0  0  0  0  0  0  0
   31.0600   67.2020   16.3790 H   0  0  0  0  0  0  0  0  0  0  0  0
   28.4724   68.6771   17.3783 H   0  0  0  0  0  0  0  0  0  0  0  0
   28.7338   69.6668   15.9022 H   0  0  0  0  0  0  0  0  0  0  0  0
   29.1645   67.9229   15.9022 H   0  0  0  0  0  0  0  0  0  0  0  0
   30.2177   68.1235   18.8458 H   0  0  0  0  0  0  0  0  0  0  0  0
   31.6747   69.2295   18.8177 H   0  0  0  0  0  0  0  0  0  0  0  0
   28.7603   70.0474   19.0489 H   0  0  0  0  0  0  0  0  0  0  0  0
   30.0546   70.1114   20.3289 H   0  0  0  0  0  0  0  0  0  0  0  0
   31.2775   71.7678   19.1051 H   0  0  0  0  0  0  0  0  0  0  0  0
  2  1  1  1
  2  3  1  0
  3  4  1  0
  4  5  1  0
  5  6  1  0
  6  7  1  0
  7  8  2  0
  7  9  1  0
  9 10  1  0
 10 11  1  0
 11 12  1  0
 12 13  1  0
 13 14  2  0
 14 15  1  0
 15 16  1  0
 16 17  1  0
 17 18  1  0
 18 19  1  0
 16 20  1  0
 20 21  1  0
 21 22  1  0
 15 23  2  0
 23 24  1  0
  5 25  1  0
 25 26  1  0
 26 27  1  0
 27 28  1  0
 28 29  1  0
 29 30  1  0
 30 31  1  0
 31 32  1  0
 32 33  1  0
 33 34  2  0
 33 35  1  0
 35 36  1  0
 36 37  1  6
 36 38  1  0
 38 39  1  0
 39 40  1  0
 26  2  1  0
 40 29  1  0
 40  2  1  0
 24 12  2  0
 36 30  1  0
  1 41  1  0
  1 42  1  0
  1 43  1  0
  3 44  1  0
  3 45  1  0
  4 46  1  0
  4 47  1  0
  5 48  1  6
  9 49  1  0
  9 50  1  0
 10 51  1  0
 10 52  1  0
 11 53  1  0
 11 54  1  0
 13 55  1  0
 14 56  1  0
 17 57  1  0
 17 58  1  0
 18 59  1  0
 18 60  1  0
 20 61  1  0
 20 62  1  0
 21 63  1  0
 21 64  1  0
 23 65  1  0
 24 66  1  0
 25 67  1  0
 25 68  1  0
 26 69  1  6
 27 70  1  0
 27 71  1  0
 28 72  1  0
 28 73  1  0
 29 74  1  6
 30 75  1  6
 31 76  1  0
 31 77  1  0
 32 78  1  0
 32 79  1  0
 35 80  1  0
 37 81  1  0
 37 82  1  0
 37 83  1  0
 38 84  1  0
 38 85  1  0
 39 86  1  0
 39 87  1  0
 40 88  1  6
M  END
>  <meeko>  (2) 
{"is_sidechain": [false], "free_energy": -7.397, "intermolecular_energy": -11.997, "internal_energy": -3.739}

$$$$
SCHEMBL29564401_10008594_out
     RDKit          3D

 88 92  0  0  0  0  0  0  0  0999 V2000
   29.6570   73.8070   18.4590 C   0  0  0  0  0  0  0  0  0  0  0  0
   30.5520   72.7860   19.2090 C   0  0  2  0  0  0  0  0  0  0  0  0
   29.9860   72.6090   20.6480 C   0  0  0  0  0  0  0  0  0  0  0  0
   30.1190   73.8620   21.5150 C   0  0  0  0  0  0  0  0  0  0  0  0
   31.5510   74.3840   21.5680 C   0  0  2  0  0  0  0  0  0  0  0  0
   31.5580   75.6250   22.2650 O   0  0  0  0  0  0  0  0  0  0  0  0
   32.7930   76.1150   22.5930 C   0  0  0  0  0  0  0  0  0  0  0  0
   33.7120   75.4680   23.0770 O   0  0  0  0  0  0  0  0  0  0  0  0
   32.8530   77.5970   22.2990 C   0  0  0  0  0  0  0  0  0  0  0  0
   31.6900   78.0810   21.4290 C   0  0  0  0  0  0  0  0  0  0  0  0
   32.1220   78.9530   20.2420 C   0  0  0  0  0  0  0  0  0  0  0  0
   32.3030   78.2060   18.9460 C   0  0  0  0  0  0  0  0  0  0  0  0
   31.2090   77.5960   18.3330 C   0  0  0  0  0  0  0  0  0  0  0  0
   31.3770   76.9050   17.1340 C   0  0  0  0  0  0  0  0  0  0  0  0
   32.6400   76.8240   16.5470 C   0  0  0  0  0  0  0  0  0  0  0  0
   32.8100   76.1250   15.3330 N   0  0  0  0  0  0  0  0  0  0  0  0
   33.9920   75.3170   15.1110 C   0  0  0  0  0  0  0  0  0  0  0  0
   33.7370   74.2570   14.0520 C   0  0  0  0  0  0  0  0  0  0  0  0
   34.6740   72.7760   14.3740 Cl  0  0  0  0  0  0  0  0  0  0  0  0
   31.8110   76.2170   14.2870 C   0  0  0  0  0  0  0  0  0  0  0  0
   31.9750   77.5010   13.4880 C   0  0  0  0  0  0  0  0  0  0  0  0
   30.7470   77.6300   12.2050 Cl  0  0  0  0  0  0  0  0  0  0  0  0
   33.7340   77.4350   17.1590 C   0  0  0  0  0  0  0  0  0  0  0  0
   33.5660   78.1260   18.3590 C   0  0  0  0  0  0  0  0  0  0  0  0
   32.1470   74.5740   20.1740 C   0  0  0  0  0  0  0  0  0  0  0  0
   32.0230   73.2930   19.3410 C   0  0  2  0  0  0  0  0  0  0  0  0
   32.7040   73.4430   17.9770 C   0  0  0  0  0  0  0  0  0  0  0  0
   32.7350   72.1000   17.2550 C   0  0  0  0  0  0  0  0  0  0  0  0
   31.3370   71.4770   17.0970 C   0  0  1  0  0  0  0  0  0  0  0  0
   31.3840   70.1080   16.3470 C   0  0  1  0  0  0  0  0  0  0  0  0
   32.3120   69.0730   17.0110 C   0  0  0  0  0  0  0  0  0  0  0  0
   32.4100   67.8180   16.1620 C   0  0  0  0  0  0  0  0  0  0  0  0
   31.0800   67.2330   15.7650 C   0  0  0  0  0  0  0  0  0  0  0  0
   30.9780   66.0410   15.4730 O   0  0  0  0  0  0  0  0  0  0  0  0
   30.0310   68.1130   15.6490 N   0  0  0  0  0  0  0  0  0  0  0  0
   29.9670   69.4920   16.1690 C   0  0  2  0  0  0  0  0  0  0  0  0
   29.1480   70.3090   15.1490 C   0  0  0  0  0  0  0  0  0  0  0  0
   29.2270   69.4410   17.5250 C   0  0  0  0  0  0  0  0  0  0  0  0
   29.1840   70.7820   18.2540 C   0  0  0  0  0  0  0  0  0  0  0  0
   30.5820   71.3980   18.4540 C   0  0  2  0  0  0  0  0  0  0  0  0
   29.1149   74.4254   19.1895 H   0  0  0  0  0  0  0  0  0  0  0  0
   30.2861   74.4519   17.8278 H   0  0  0  0  0  0  0  0  0  0  0  0
   28.9353   73.2678   17.8278 H   0  0  0  0  0  0  0  0  0  0  0  0
   28.9198   72.3491   20.5731 H   0  0  0  0  0  0  0  0  0  0  0  0
   30.5758   71.8168   21.1322 H   0  0  0  0  0  0  0  0  0  0  0  0
   29.4715   74.6487   21.1003 H   0  0  0  0  0  0  0  0  0  0  0  0
   29.8221   73.5935   22.5396 H   0  0  0  0  0  0  0  0  0  0  0  0
   32.1705   73.6392   22.0890 H   0  0  0  0  0  0  0  0  0  0  0  0
   32.8293   78.1449   23.2525 H   0  0  0  0  0  0  0  0  0  0  0  0
   33.7822   77.7847   21.7410 H   0  0  0  0  0  0  0  0  0  0  0  0
   31.1607   77.2000   21.0370 H   0  0  0  0  0  0  0  0  0  0  0  0
   31.0513   78.7071   22.0693 H   0  0  0  0  0  0  0  0  0  0  0  0
   31.3551   79.7263   20.0877 H   0  0  0  0  0  0  0  0  0  0  0  0
   33.1072   79.3671   20.5025 H   0  0  0  0  0  0  0  0  0  0  0  0
   30.2131   77.6601   18.7957 H   0  0  0  0  0  0  0  0  0  0  0  0
   30.5139   76.4237   16.6508 H   0  0  0  0  0  0  0  0  0  0  0  0
   34.8147   75.9670   14.7783 H   0  0  0  0  0  0  0  0  0  0  0  0
   34.2546   74.8143   16.0535 H   0  0  0  0  0  0  0  0  0  0  0  0
   32.6655   74.0081   14.0457 H   0  0  0  0  0  0  0  0  0  0  0  0
   34.0505   74.6595   13.0774 H   0  0  0  0  0  0  0  0  0  0  0  0
   31.9181   75.3562   13.6106 H   0  0  0  0  0  0  0  0  0  0  0  0
   30.8147   76.2191   14.7532 H   0  0  0  0  0  0  0  0  0  0  0  0
   31.8744   78.3604   14.1672 H   0  0  0  0  0  0  0  0  0  0  0  0
   32.9686   77.4903   13.0161 H   0  0  0  0  0  0  0  0  0  0  0  0
   34.7295   77.3720   16.6954 H   0  0  0  0  0  0  0  0  0  0  0  0
   34.4289   78.6076   18.8422 H   0  0  0  0  0  0  0  0  0  0  0  0
   31.6124   75.3881   19.6627 H   0  0  0  0  0  0  0  0  0  0  0  0
   33.2140   74.8191   20.2809 H   0  0  0  0  0  0  0  0  0  0  0  0
   32.5592   72.5094   19.8964 H   0  0  0  0  0  0  0  0  0  0  0  0
   32.1448   74.1697   17.3693 H   0  0  0  0  0  0  0  0  0  0  0  0
   33.7355   73.7946   18.1268 H   0  0  0  0  0  0  0  0  0  0  0  0
   33.1690   72.2482   16.2552 H   0  0  0  0  0  0  0  0  0  0  0  0
   33.3387   71.4103   17.8631 H   0  0  0  0  0  0  0  0  0  0  0  0
   30.7510   72.1527   16.4567 H   0  0  0  0  0  0  0  0  0  0  0  0
   31.8043   70.3453   15.3585 H   0  0  0  0  0  0  0  0  0  0  0  0
   33.3150   69.5094   17.1275 H   0  0  0  0  0  0  0  0  0  0  0  0
   31.8965   68.8041   17.9934 H   0  0  0  0  0  0  0  0  0  0  0  0
   32.9653   68.0648   15.2451 H   0  0  0  0  0  0  0  0  0  0  0  0
   32.9165   67.0600   16.7775 H   0  0  0  0  0  0  0  0  0  0  0  0
   29.2000   67.7730   15.1420 H   0  0  0  0  0  0  0  0  0  0  0  0
   28.4677   70.9876   15.6844 H   0  0  0  0  0  0  0  0  0  0  0  0
   29.8304   70.8969   14.5176 H   0  0  0  0  0  0  0  0  0  0  0  0
   28.5618   69.6252   14.5176 H   0  0  0  0  0  0  0  0  0  0  0  0
   28.1933   69.1113   17.3439 H   0  0  0  0  0  0  0  0  0  0  0  0
   29.7843   68.7442   18.1683 H   0  0  0  0  0  0  0  0  0  0  0  0
   28.5723   71.4821   17.6661 H   0  0  0  0  0  0  0  0  0  0  0  0
   28.7551   70.6033   19.2511 H   0  0  0  0  0  0  0  0  0  0  0  0
   31.1419   70.7256   19.1206 H   0  0  0  0  0  0  0  0  0  0  0  0
  2  1  1  6
  2  3  1  0
  3  4  1  0
  4  5  1  0
  5  6  1  0
  6  7  1  0
  7  8  2  0
  7  9  1  0
  9 10  1  0
 10 11  1  0
 11 12  1  0
 12 13  1  0
 13 14  2  0
 14 15  1  0
 15 16  1  0
 16 17  1  0
 17 18  1  0
 18 19  1  0
 16 20  1  0
 20 21  1  0
 21 22  1  0
 15 23  2  0
 23 24  1  0
  5 25  1  0
 25 26  1  0
 26 27  1  0
 27 28  1  0
 28 29  1  0
 29 30  1  0
 30 31  1  0
 31 32  1  0
 32 33  1  0
 33 34  2  0
 33 35  1  0
 35 36  1  0
 36 37  1  6
 36 38  1  0
 38 39  1  0
 39 40  1  0
 26  2  1  0
 40 29  1  0
 40  2  1  0
 24 12  2  0
 36 30  1  0
  1 41  1  0
  1 42  1  0
  1 43  1  0
  3 44  1  0
  3 45  1  0
  4 46  1  0
  4 47  1  0
  5 48  1  1
  9 49  1  0
  9 50  1  0
 10 51  1  0
 10 52  1  0
 11 53  1  0
 11 54  1  0
 13 55  1  0
 14 56  1  0
 17 57  1  0
 17 58  1  0
 18 59  1  0
 18 60  1  0
 20 61  1  0
 20 62  1  0
 21 63  1  0
 21 64  1  0
 23 65  1  0
 24 66  1  0
 25 67  1  0
 25 68  1  0
 26 69  1  1
 27 70  1  0
 27 71  1  0
 28 72  1  0
 28 73  1  0
 29 74  1  6
 30 75  1  6
 31 76  1  0
 31 77  1  0
 32 78  1  0
 32 79  1  0
 35 80  1  0
 37 81  1  0
 37 82  1  0
 37 83  1  0
 38 84  1  0
 38 85  1  0
 39 86  1  0
 39 87  1  0
 40 88  1  1
M  END
>  <meeko>  (3) 
{"is_sidechain": [false], "free_energy": -7.298, "intermolecular_energy": -12.731, "internal_energy": -2.844}

$$$$
SCHEMBL29564401_10008594_out
     RDKit          3D

 88 92  0  0  0  0  0  0  0  0999 V2000
   29.3560   73.9900   18.7270 C   0  0  0  0  0  0  0  0  0  0  0  0
   30.0160   72.8620   19.5640 C   0  0  2  0  0  0  0  0  0  0  0  0
   29.1540   72.6360   20.8400 C   0  0  0  0  0  0  0  0  0  0  0  0
   29.1740   73.8200   21.8090 C   0  0  0  0  0  0  0  0  0  0  0  0
   30.5910   74.2330   22.1910 C   0  0  2  0  0  0  0  0  0  0  0  0
   30.5230   75.4250   22.9680 O   0  0  0  0  0  0  0  0  0  0  0  0
   30.1850   76.5610   22.2840 C   0  0  0  0  0  0  0  0  0  0  0  0
   29.1940   76.7010   21.5800 O   0  0  0  0  0  0  0  0  0  0  0  0
   31.2400   77.6230   22.4960 C   0  0  0  0  0  0  0  0  0  0  0  0
   31.0370   78.8530   21.6090 C   0  0  0  0  0  0  0  0  0  0  0  0
   32.1830   79.1000   20.6160 C   0  0  0  0  0  0  0  0  0  0  0  0
   32.1350   78.2470   19.3750 C   0  0  0  0  0  0  0  0  0  0  0  0
   33.3140   77.7380   18.8320 C   0  0  0  0  0  0  0  0  0  0  0  0
   33.2690   76.9500   17.6830 C   0  0  0  0  0  0  0  0  0  0  0  0
   32.0440   76.6690   17.0770 C   0  0  0  0  0  0  0  0  0  0  0  0
   31.9990   75.8700   15.9160 N   0  0  0  0  0  0  0  0  0  0  0  0
   30.8140   75.8530   15.0820 C   0  0  0  0  0  0  0  0  0  0  0  0
   31.0250   76.6710   13.8180 C   0  0  0  0  0  0  0  0  0  0  0  0
   31.2640   78.3960   14.1920 Cl  0  0  0  0  0  0  0  0  0  0  0  0
   33.1330   75.0450   15.5480 C   0  0  0  0  0  0  0  0  0  0  0  0
   32.6750   73.7500   14.8940 C   0  0  0  0  0  0  0  0  0  0  0  0
   34.0200   72.5950   14.7260 Cl  0  0  0  0  0  0  0  0  0  0  0  0
   30.8650   77.1770   17.6210 C   0  0  0  0  0  0  0  0  0  0  0  0
   30.9100   77.9660   18.7700 C   0  0  0  0  0  0  0  0  0  0  0  0
   31.4740   74.4680   20.9660 C   0  0  0  0  0  0  0  0  0  0  0  0
   31.4540   73.2540   20.0310 C   0  0  2  0  0  0  0  0  0  0  0  0
   32.4110   73.4400   18.8500 C   0  0  0  0  0  0  0  0  0  0  0  0
   32.5160   72.1460   18.0480 C   0  0  0  0  0  0  0  0  0  0  0  0
   31.1470   71.6360   17.5620 C   0  0  1  0  0  0  0  0  0  0  0  0
   31.2720   70.3170   16.7360 C   0  0  1  0  0  0  0  0  0  0  0  0
   31.9810   69.1790   17.4940 C   0  0  0  0  0  0  0  0  0  0  0  0
   32.1830   67.9760   16.5900 C   0  0  0  0  0  0  0  0  0  0  0  0
   30.9330   67.5130   15.8870 C   0  0  0  0  0  0  0  0  0  0  0  0
   30.8270   66.3510   15.4910 O   0  0  0  0  0  0  0  0  0  0  0  0
   29.9830   68.4710   15.6270 N   0  0  0  0  0  0  0  0  0  0  0  0
   29.8900   69.8150   16.2270 C   0  0  2  0  0  0  0  0  0  0  0  0
   29.3500   70.7510   15.1260 C   0  0  0  0  0  0  0  0  0  0  0  0
   28.8830   69.7320   17.3950 C   0  0  0  0  0  0  0  0  0  0  0  0
   28.7650   71.0240   18.2000 C   0  0  0  0  0  0  0  0  0  0  0  0
   30.1230   71.5260   18.7270 C   0  0  2  0  0  0  0  0  0  0  0  0
   28.9176   74.7393   19.4026 H   0  0  0  0  0  0  0  0  0  0  0  0
   30.1165   74.4687   18.0926 H   0  0  0  0  0  0  0  0  0  0  0  0
   28.5661   73.5615   18.0926 H   0  0  0  0  0  0  0  0  0  0  0  0
   28.1138   72.4575   20.5301 H   0  0  0  0  0  0  0  0  0  0  0  0
   29.5848   71.7753   21.3726 H   0  0  0  0  0  0  0  0  0  0  0  0
   28.6729   74.6754   21.3323 H   0  0  0  0  0  0  0  0  0  0  0  0
   28.6550   73.5106   22.7282 H   0  0  0  0  0  0  0  0  0  0  0  0
   31.0455   73.4139   22.7677 H   0  0  0  0  0  0  0  0  0  0  0  0
   31.2105   77.9412   23.5486 H   0  0  0  0  0  0  0  0  0  0  0  0
   32.2107   77.1806   22.2278 H   0  0  0  0  0  0  0  0  0  0  0  0
   30.1066   78.7184   21.0378 H   0  0  0  0  0  0  0  0  0  0  0  0
   30.9996   79.7260   22.2772 H   0  0  0  0  0  0  0  0  0  0  0  0
   32.1481   80.1554   20.3080 H   0  0  0  0  0  0  0  0  0  0  0  0
   33.1121   78.8331   21.1409 H   0  0  0  0  0  0  0  0  0  0  0  0
   34.2798   77.9583   19.3103 H   0  0  0  0  0  0  0  0  0  0  0  0
   34.1994   76.5496   17.2540 H   0  0  0  0  0  0  0  0  0  0  0  0
   30.5849   74.8137   14.8037 H   0  0  0  0  0  0  0  0  0  0  0  0
   29.9804   76.2931   15.6489 H   0  0  0  0  0  0  0  0  0  0  0  0
   31.9134   76.2927   13.2911 H   0  0  0  0  0  0  0  0  0  0  0  0
   30.1275   76.5743   13.1894 H   0  0  0  0  0  0  0  0  0  0  0  0
   33.7676   75.6001   14.8415 H   0  0  0  0  0  0  0  0  0  0  0  0
   33.6969   74.7973   16.4594 H   0  0  0  0  0  0  0  0  0  0  0  0
   31.8881   73.2951   15.5135 H   0  0  0  0  0  0  0  0  0  0  0  0
   32.2939   73.9857   13.8894 H   0  0  0  0  0  0  0  0  0  0  0  0
   29.8990   76.9554   17.1437 H   0  0  0  0  0  0  0  0  0  0  0  0
   29.9797   78.3666   19.1991 H   0  0  0  0  0  0  0  0  0  0  0  0
   31.1040   75.3483   20.4199 H   0  0  0  0  0  0  0  0  0  0  0  0
   32.5075   74.6304   21.3060 H   0  0  0  0  0  0  0  0  0  0  0  0
   31.8178   72.4012   20.6230 H   0  0  0  0  0  0  0  0  0  0  0  0
   32.0327   74.2416   18.1985 H   0  0  0  0  0  0  0  0  0  0  0  0
   33.4070   73.7064   19.2336 H   0  0  0  0  0  0  0  0  0  0  0  0
   33.1559   72.3260   17.1716 H   0  0  0  0  0  0  0  0  0  0  0  0
   32.9409   71.3777   18.7107 H   0  0  0  0  0  0  0  0  0  0  0  0
   30.7456   72.3908   16.8698 H   0  0  0  0  0  0  0  0  0  0  0  0
   31.9020   70.5857   15.8752 H   0  0  0  0  0  0  0  0  0  0  0  0
   32.9606   69.5349   17.8456 H   0  0  0  0  0  0  0  0  0  0  0  0
   31.3550   68.8789   18.3473 H   0  0  0  0  0  0  0  0  0  0  0  0
   32.9300   68.2398   15.8269 H   0  0  0  0  0  0  0  0  0  0  0  0
   32.5071   67.1468   17.2360 H   0  0  0  0  0  0  0  0  0  0  0  0
   29.2580   68.2240   14.9370 H   0  0  0  0  0  0  0  0  0  0  0  0
   28.8518   71.6146   15.5908 H   0  0  0  0  0  0  0  0  0  0  0  0
   30.1846   71.1017   14.5011 H   0  0  0  0  0  0  0  0  0  0  0  0
   28.6286   70.2041   14.5011 H   0  0  0  0  0  0  0  0  0  0  0  0
   27.8927   69.4888   16.9825 H   0  0  0  0  0  0  0  0  0  0  0  0
   29.2540   68.9584   18.0834 H   0  0  0  0  0  0  0  0  0  0  0  0
   28.3294   71.8013   17.5550 H   0  0  0  0  0  0  0  0  0  0  0  0
   28.1289   70.8134   19.0724 H   0  0  0  0  0  0  0  0  0  0  0  0
   30.4925   70.7753   19.4411 H   0  0  0  0  0  0  0  0  0  0  0  0
  2  1  1  6
  2  3  1  0
  3  4  1  0
  4  5  1  0
  5  6  1  0
  6  7  1  0
  7  8  2  0
  7  9  1  0
  9 10  1  0
 10 11  1  0
 11 12  1  0
 12 13  1  0
 13 14  2  0
 14 15  1  0
 15 16  1  0
 16 17  1  0
 17 18  1  0
 18 19  1  0
 16 20  1  0
 20 21  1  0
 21 22  1  0
 15 23  2  0
 23 24  1  0
  5 25  1  0
 25 26  1  0
 26 27  1  0
 27 28  1  0
 28 29  1  0
 29 30  1  0
 30 31  1  0
 31 32  1  0
 32 33  1  0
 33 34  2  0
 33 35  1  0
 35 36  1  0
 36 37  1  6
 36 38  1  0
 38 39  1  0
 39 40  1  0
 26  2  1  0
 40 29  1  0
 40  2  1  0
 24 12  2  0
 36 30  1  0
  1 41  1  0
  1 42  1  0
  1 43  1  0
  3 44  1  0
  3 45  1  0
  4 46  1  0
  4 47  1  0
  5 48  1  1
  9 49  1  0
  9 50  1  0
 10 51  1  0
 10 52  1  0
 11 53  1  0
 11 54  1  0
 13 55  1  0
 14 56  1  0
 17 57  1  0
 17 58  1  0
 18 59  1  0
 18 60  1  0
 20 61  1  0
 20 62  1  0
 21 63  1  0
 21 64  1  0
 23 65  1  0
 24 66  1  0
 25 67  1  0
 25 68  1  0
 26 69  1  1
 27 70  1  0
 27 71  1  0
 28 72  1  0
 28 73  1  0
 29 74  1  6
 30 75  1  6
 31 76  1  0
 31 77  1  0
 32 78  1  0
 32 79  1  0
 35 80  1  0
 37 81  1  0
 37 82  1  0
 37 83  1  0
 38 84  1  0
 38 85  1  0
 39 86  1  0
 39 87  1  0
 40 88  1  1
M  END
>  <meeko>  (4) 
{"is_sidechain": [false], "free_energy": -7.196, "intermolecular_energy": -12.897, "internal_energy": -2.51}

$$$$
SCHEMBL29564401_10008594_out
     RDKit          3D

 88 92  0  0  0  0  0  0  0  0999 V2000
   33.5460   76.0890   18.3660 C   0  0  0  0  0  0  0  0  0  0  0  0
   32.7860   77.3310   17.8310 C   0  0  2  0  0  0  0  0  0  0  0  0
   33.4500   78.6040   18.4340 C   0  0  0  0  0  0  0  0  0  0  0  0
   33.2650   78.7310   19.9470 C   0  0  0  0  0  0  0  0  0  0  0  0
   31.8000   78.6490   20.3630 C   0  0  2  0  0  0  0  0  0  0  0  0
   31.7310   78.6240   21.7850 O   0  0  0  0  0  0  0  0  0  0  0  0
   32.1500   77.4650   22.3790 C   0  0  0  0  0  0  0  0  0  0  0  0
   33.3060   77.1910   22.6730 O   0  0  0  0  0  0  0  0  0  0  0  0
   30.9710   76.5430   22.5960 C   0  0  0  0  0  0  0  0  0  0  0  0
   31.3820   75.0800   22.7730 C   0  0  0  0  0  0  0  0  0  0  0  0
   30.2410   74.0800   22.5370 C   0  0  0  0  0  0  0  0  0  0  0  0
   30.3300   73.3200   21.2390 C   0  0  0  0  0  0  0  0  0  0  0  0
   31.3610   73.5920   20.3400 C   0  0  0  0  0  0  0  0  0  0  0  0
   31.4420   72.8880   19.1380 C   0  0  0  0  0  0  0  0  0  0  0  0
   30.4920   71.9110   18.8360 C   0  0  0  0  0  0  0  0  0  0  0  0
   30.5760   71.1990   17.6220 N   0  0  0  0  0  0  0  0  0  0  0  0
   29.7430   70.0350   17.3950 C   0  0  0  0  0  0  0  0  0  0  0  0
   30.5890   68.7840   17.2250 C   0  0  0  0  0  0  0  0  0  0  0  0
   31.4550   68.3760   18.7270 Cl  0  0  0  0  0  0  0  0  0  0  0  0
   31.5050   71.6150   16.5900 C   0  0  0  0  0  0  0  0  0  0  0  0
   30.8200   72.5080   15.5660 C   0  0  0  0  0  0  0  0  0  0  0  0
   29.7780   71.5640   14.4730 Cl  0  0  0  0  0  0  0  0  0  0  0  0
   29.4620   71.6390   19.7360 C   0  0  0  0  0  0  0  0  0  0  0  0
   29.3800   72.3430   20.9370 C   0  0  0  0  0  0  0  0  0  0  0  0
   31.1080   77.4110   19.7940 C   0  0  0  0  0  0  0  0  0  0  0  0
   31.2880   77.3280   18.2730 C   0  0  2  0  0  0  0  0  0  0  0  0
   30.5170   76.1440   17.6820 C   0  0  0  0  0  0  0  0  0  0  0  0
   30.5540   76.2020   16.1580 C   0  0  0  0  0  0  0  0  0  0  0  0
   31.9880   76.2480   15.5990 C   0  0  1  0  0  0  0  0  0  0  0  0
   32.0110   76.2960   14.0390 C   0  0  1  0  0  0  0  0  0  0  0  0
   31.2140   77.4740   13.4470 C   0  0  0  0  0  0  0  0  0  0  0  0
   31.1700   77.3850   11.9320 C   0  0  0  0  0  0  0  0  0  0  0  0
   32.5180   77.2130   11.2820 C   0  0  0  0  0  0  0  0  0  0  0  0
   32.7020   77.5530   10.1130 O   0  0  0  0  0  0  0  0  0  0  0  0
   33.4810   76.5730   12.0240 N   0  0  0  0  0  0  0  0  0  0  0  0
   33.4610   76.3210   13.4780 C   0  0  2  0  0  0  0  0  0  0  0  0
   34.1460   74.9560   13.6960 C   0  0  0  0  0  0  0  0  0  0  0  0
   34.2820   77.4410   14.1530 C   0  0  0  0  0  0  0  0  0  0  0  0
   34.2570   77.3900   15.6790 C   0  0  0  0  0  0  0  0  0  0  0  0
   32.8270   77.3830   16.2520 C   0  0  2  0  0  0  0  0  0  0  0  0
   33.5390   76.1005   19.4659 H   0  0  0  0  0  0  0  0  0  0  0  0
   33.0529   75.1741   18.0057 H   0  0  0  0  0  0  0  0  0  0  0  0
   34.5851   76.1117   18.0057 H   0  0  0  0  0  0  0  0  0  0  0  0
   34.5278   78.5705   18.2168 H   0  0  0  0  0  0  0  0  0  0  0  0
   32.9582   79.4738   17.9741 H   0  0  0  0  0  0  0  0  0  0  0  0
   33.8181   77.9179   20.4399 H   0  0  0  0  0  0  0  0  0  0  0  0
   33.6445   79.7182   20.2494 H   0  0  0  0  0  0  0  0  0  0  0  0
   31.2775   79.5295   19.9608 H   0  0  0  0  0  0  0  0  0  0  0  0
   30.4333   76.8679   23.4989 H   0  0  0  0  0  0  0  0  0  0  0  0
   30.3379   76.6010   21.6984 H   0  0  0  0  0  0  0  0  0  0  0  0
   32.1897   74.8585   22.0598 H   0  0  0  0  0  0  0  0  0  0  0  0
   31.6986   74.9618   23.8198 H   0  0  0  0  0  0  0  0  0  0  0  0
   30.2470   73.3521   23.3617 H   0  0  0  0  0  0  0  0  0  0  0  0
   29.3143   74.6708   22.4889 H   0  0  0  0  0  0  0  0  0  0  0  0
   32.1101   74.3614   20.5785 H   0  0  0  0  0  0  0  0  0  0  0  0
   32.2546   73.1030   18.4284 H   0  0  0  0  0  0  0  0  0  0  0  0
   29.0709   69.9005   18.2553 H   0  0  0  0  0  0  0  0  0  0  0  0
   29.1632   70.1935   16.4738 H   0  0  0  0  0  0  0  0  0  0  0  0
   29.9344   67.9439   16.9499 H   0  0  0  0  0  0  0  0  0  0  0  0
   31.3328   68.9735   16.4371 H   0  0  0  0  0  0  0  0  0  0  0  0
   32.3332   72.1703   17.0544 H   0  0  0  0  0  0  0  0  0  0  0  0
   31.8818   70.7184   16.0761 H   0  0  0  0  0  0  0  0  0  0  0  0
   30.2043   73.2510   16.0942 H   0  0  0  0  0  0  0  0  0  0  0  0
   31.5964   73.0016   14.9631 H   0  0  0  0  0  0  0  0  0  0  0  0
   28.7137   70.8686   19.4984 H   0  0  0  0  0  0  0  0  0  0  0  0
   28.5669   72.1284   21.6461 H   0  0  0  0  0  0  0  0  0  0  0  0
   31.5419   76.5123   20.2567 H   0  0  0  0  0  0  0  0  0  0  0  0
   30.0327   77.4790   20.0154 H   0  0  0  0  0  0  0  0  0  0  0  0
   30.8532   78.2494   17.8583 H   0  0  0  0  0  0  0  0  0  0  0  0
   30.9772   75.2043   18.0215 H   0  0  0  0  0  0  0  0  0  0  0  0
   29.4709   76.1917   18.0186 H   0  0  0  0  0  0  0  0  0  0  0  0
   30.0496   75.3093   15.7596 H   0  0  0  0  0  0  0  0  0  0  0  0
   30.0473   77.1281   15.8487 H   0  0  0  0  0  0  0  0  0  0  0  0
   32.4758   75.3027   15.8791 H   0  0  0  0  0  0  0  0  0  0  0  0
   31.5146   75.3664   13.7237 H   0  0  0  0  0  0  0  0  0  0  0  0
   30.1870   77.4489   13.8401 H   0  0  0  0  0  0  0  0  0  0  0  0
   31.7089   78.4142   13.7317 H   0  0  0  0  0  0  0  0  0  0  0  0
   30.5419   76.5253   11.6555 H   0  0  0  0  0  0  0  0  0  0  0  0
   30.7663   78.3427   11.5717 H   0  0  0  0  0  0  0  0  0  0  0  0
   34.3050   76.2300   11.5090 H   0  0  0  0  0  0  0  0  0  0  0  0
   34.2431   74.7626   14.7745 H   0  0  0  0  0  0  0  0  0  0  0  0
   33.5389   74.1632   13.2345 H   0  0  0  0  0  0  0  0  0  0  0  0
   35.1444   74.9689   13.2345 H   0  0  0  0  0  0  0  0  0  0  0  0
   35.3268   77.3536   13.8202 H   0  0  0  0  0  0  0  0  0  0  0  0
   33.8241   78.3964   13.8571 H   0  0  0  0  0  0  0  0  0  0  0  0
   34.7724   76.4758   16.0087 H   0  0  0  0  0  0  0  0  0  0  0  0
   34.7580   78.2966   16.0492 H   0  0  0  0  0  0  0  0  0  0  0  0
   32.3660   78.3464   15.9886 H   0  0  0  0  0  0  0  0  0  0  0  0
  2  1  1  1
  2  3  1  0
  3  4  1  0
  4  5  1  0
  5  6  1  0
  6  7  1  0
  7  8  2  0
  7  9  1  0
  9 10  1  0
 10 11  1  0
 11 12  1  0
 12 13  1  0
 13 14  2  0
 14 15  1  0
 15 16  1  0
 16 17  1  0
 17 18  1  0
 18 19  1  0
 16 20  1  0
 20 21  1  0
 21 22  1  0
 15 23  2  0
 23 24  1  0
  5 25  1  0
 25 26  1  0
 26 27  1  0
 27 28  1  0
 28 29  1  0
 29 30  1  0
 30 31  1  0
 31 32  1  0
 32 33  1  0
 33 34  2  0
 33 35  1  0
 35 36  1  0
 36 37  1  6
 36 38  1  0
 38 39  1  0
 39 40  1  0
 26  2  1  0
 40 29  1  0
 40  2  1  0
 24 12  2  0
 36 30  1  0
  1 41  1  0
  1 42  1  0
  1 43  1  0
  3 44  1  0
  3 45  1  0
  4 46  1  0
  4 47  1  0
  5 48  1  6
  9 49  1  0
  9 50  1  0
 10 51  1  0
 10 52  1  0
 11 53  1  0
 11 54  1  0
 13 55  1  0
 14 56  1  0
 17 57  1  0
 17 58  1  0
 18 59  1  0
 18 60  1  0
 20 61  1  0
 20 62  1  0
 21 63  1  0
 21 64  1  0
 23 65  1  0
 24 66  1  0
 25 67  1  0
 25 68  1  0
 26 69  1  6
 27 70  1  0
 27 71  1  0
 28 72  1  0
 28 73  1  0
 29 74  1  6
 30 75  1  6
 31 76  1  0
 31 77  1  0
 32 78  1  0
 32 79  1  0
 35 80  1  0
 37 81  1  0
 37 82  1  0
 37 83  1  0
 38 84  1  0
 38 85  1  0
 39 86  1  0
 39 87  1  0
 40 88  1  6
M  END
>  <meeko>  (5) 
{"is_sidechain": [false], "free_energy": -7.175, "intermolecular_energy": -13.6, "internal_energy": -1.772}

$$$$
SCHEMBL29564401_10008594_out
     RDKit          3D

 88 92  0  0  0  0  0  0  0  0999 V2000
   31.5650   73.0080   15.2170 C   0  0  0  0  0  0  0  0  0  0  0  0
   31.6770   74.4130   15.8670 C   0  0  2  0  0  0  0  0  0  0  0  0
   30.7620   75.3900   15.0730 C   0  0  0  0  0  0  0  0  0  0  0  0
   31.2410   75.6500   13.6430 C   0  0  0  0  0  0  0  0  0  0  0  0
   32.6910   76.1200   13.5920 C   0  0  2  0  0  0  0  0  0  0  0  0
   33.0980   76.1930   12.2300 O   0  0  0  0  0  0  0  0  0  0  0  0
   32.5030   77.1740   11.4840 C   0  0  0  0  0  0  0  0  0  0  0  0
   32.0720   77.0440   10.3470 O   0  0  0  0  0  0  0  0  0  0  0  0
   32.4830   78.4700   12.2630 C   0  0  0  0  0  0  0  0  0  0  0  0
   31.1190   79.1640   12.2320 C   0  0  0  0  0  0  0  0  0  0  0  0
   31.0410   80.4230   13.1080 C   0  0  0  0  0  0  0  0  0  0  0  0
   30.6100   80.1740   14.5300 C   0  0  0  0  0  0  0  0  0  0  0  0
   29.9330   79.0000   14.8580 C   0  0  0  0  0  0  0  0  0  0  0  0
   29.5340   78.7700   16.1750 C   0  0  0  0  0  0  0  0  0  0  0  0
   29.8140   79.7140   17.1630 C   0  0  0  0  0  0  0  0  0  0  0  0
   29.4110   79.4800   18.4950 N   0  0  0  0  0  0  0  0  0  0  0  0
   29.9830   78.3860   19.2530 C   0  0  0  0  0  0  0  0  0  0  0  0
   31.4840   78.5630   19.4190 C   0  0  0  0  0  0  0  0  0  0  0  0
   32.3890   77.5920   18.2310 Cl  0  0  0  0  0  0  0  0  0  0  0  0
   28.4100   80.3230   19.1170 C   0  0  0  0  0  0  0  0  0  0  0  0
   27.0150   79.7500   18.9180 C   0  0  0  0  0  0  0  0  0  0  0  0
   26.2190   80.4560   17.4900 Cl  0  0  0  0  0  0  0  0  0  0  0  0
   30.4920   80.8870   16.8350 C   0  0  0  0  0  0  0  0  0  0  0  0
   30.8900   81.1170   15.5190 C   0  0  0  0  0  0  0  0  0  0  0  0
   33.6270   75.1870   14.3590 C   0  0  0  0  0  0  0  0  0  0  0  0
   33.1340   74.9700   15.7950 C   0  0  2  0  0  0  0  0  0  0  0  0
   34.1160   74.1140   16.6010 C   0  0  0  0  0  0  0  0  0  0  0  0
   33.7010   74.0790   18.0680 C   0  0  0  0  0  0  0  0  0  0  0  0
   32.2590   73.5790   18.2660 C   0  0  1  0  0  0  0  0  0  0  0  0
   31.8520   73.5390   19.7730 C   0  0  1  0  0  0  0  0  0  0  0  0
   32.0060   74.8940   20.4900 C   0  0  0  0  0  0  0  0  0  0  0  0
   31.7190   74.7510   21.9740 C   0  0  0  0  0  0  0  0  0  0  0  0
   30.4110   74.0740   22.2900 C   0  0  0  0  0  0  0  0  0  0  0  0
   29.8460   74.2670   23.3670 O   0  0  0  0  0  0  0  0  0  0  0  0
   29.9490   73.1680   21.3660 N   0  0  0  0  0  0  0  0  0  0  0  0
   30.4010   73.0130   19.9710 C   0  0  2  0  0  0  0  0  0  0  0  0
   30.3270   71.5060   19.6500 C   0  0  0  0  0  0  0  0  0  0  0  0
   29.4160   73.7950   19.0750 C   0  0  0  0  0  0  0  0  0  0  0  0
   29.8190   73.8320   17.6020 C   0  0  0  0  0  0  0  0  0  0  0  0
   31.2470   74.3680   17.3870 C   0  0  2  0  0  0  0  0  0  0  0  0
   31.5040   72.2432   16.0052 H   0  0  0  0  0  0  0  0  0  0  0  0
   30.6605   72.9639   14.5926 H   0  0  0  0  0  0  0  0  0  0  0  0
   32.4511   72.8212   14.5926 H   0  0  0  0  0  0  0  0  0  0  0  0
   29.7502   74.9607   15.0285 H   0  0  0  0  0  0  0  0  0  0  0  0
   30.7835   76.3545   15.6015 H   0  0  0  0  0  0  0  0  0  0  0  0
   31.1512   74.7182   13.0654 H   0  0  0  0  0  0  0  0  0  0  0  0
   30.6144   76.4487   13.2194 H   0  0  0  0  0  0  0  0  0  0  0  0
   32.7505   77.1080   14.0720 H   0  0  0  0  0  0  0  0  0  0  0  0
   32.7430   78.2541   13.3098 H   0  0  0  0  0  0  0  0  0  0  0  0
   33.2090   79.1489   11.7919 H   0  0  0  0  0  0  0  0  0  0  0  0
   30.9000   79.4510   11.1929 H   0  0  0  0  0  0  0  0  0  0  0  0
   30.3876   78.4484   12.6357 H   0  0  0  0  0  0  0  0  0  0  0  0
   32.0374   80.8887   13.1284 H   0  0  0  0  0  0  0  0  0  0  0  0
   30.2715   81.0676   12.6582 H   0  0  0  0  0  0  0  0  0  0  0  0
   29.7136   78.2554   14.0786 H   0  0  0  0  0  0  0  0  0  0  0  0
   28.9988   77.8446   16.4341 H   0  0  0  0  0  0  0  0  0  0  0  0
   29.5128   78.3527   20.2469 H   0  0  0  0  0  0  0  0  0  0  0  0
   29.7993   77.4486   18.7076 H   0  0  0  0  0  0  0  0  0  0  0  0
   31.7366   79.6246   19.2802 H   0  0  0  0  0  0  0  0  0  0  0  0
   31.7629   78.2237   20.4275 H   0  0  0  0  0  0  0  0  0  0  0  0
   28.6191   80.3946   20.1946 H   0  0  0  0  0  0  0  0  0  0  0  0
   28.4502   81.3180   18.6497 H   0  0  0  0  0  0  0  0  0  0  0  0
   27.0915   78.6610   18.7831 H   0  0  0  0  0  0  0  0  0  0  0  0
   26.4118   79.9924   19.8053 H   0  0  0  0  0  0  0  0  0  0  0  0
   30.7129   81.6310   17.6145 H   0  0  0  0  0  0  0  0  0  0  0  0
   31.4251   82.0426   15.2603 H   0  0  0  0  0  0  0  0  0  0  0  0
   33.6692   74.2165   13.8430 H   0  0  0  0  0  0  0  0  0  0  0  0
   34.6252   75.6475   14.3978 H   0  0  0  0  0  0  0  0  0  0  0  0
   33.0962   75.9648   16.2629 H   0  0  0  0  0  0  0  0  0  0  0  0
   34.1198   73.0898   16.1997 H   0  0  0  0  0  0  0  0  0  0  0  0
   35.1223   74.5512   16.5224 H   0  0  0  0  0  0  0  0  0  0  0  0
   34.3835   73.4085   18.6108 H   0  0  0  0  0  0  0  0  0  0  0  0
   33.7511   75.1086   18.4519 H   0  0  0  0  0  0  0  0  0  0  0  0
   32.2258   72.5369   17.9154 H   0  0  0  0  0  0  0  0  0  0  0  0
   32.5610   72.8361   20.2348 H   0  0  0  0  0  0  0  0  0  0  0  0
   33.0347   75.2594   20.3546 H   0  0  0  0  0  0  0  0  0  0  0  0
   31.2881   75.6066   20.0578 H   0  0  0  0  0  0  0  0  0  0  0  0
   32.5301   74.1616   22.4265 H   0  0  0  0  0  0  0  0  0  0  0  0
   31.6526   75.7705   22.3817 H   0  0  0  0  0  0  0  0  0  0  0  0
   29.2060   72.5270   21.6830 H   0  0  0  0  0  0  0  0  0  0  0  0
   30.2988   70.9322   20.5881 H   0  0  0  0  0  0  0  0  0  0  0  0
   29.4176   71.2996   19.0665 H   0  0  0  0  0  0  0  0  0  0  0  0
   31.2118   71.2115   19.0665 H   0  0  0  0  0  0  0  0  0  0  0  0
   28.4262   73.3213   19.1520 H   0  0  0  0  0  0  0  0  0  0  0  0
   29.4139   74.8352   19.4329 H   0  0  0  0  0  0  0  0  0  0  0  0
   29.7620   72.8111   17.1963 H   0  0  0  0  0  0  0  0  0  0  0  0
   29.1278   74.5151   17.0867 H   0  0  0  0  0  0  0  0  0  0  0  0
   31.2525   75.4183   17.7137 H   0  0  0  0  0  0  0  0  0  0  0  0
  2  1  1  6
  2  3  1  0
  3  4  1  0
  4  5  1  0
  5  6  1  0
  6  7  1  0
  7  8  2  0
  7  9  1  0
  9 10  1  0
 10 11  1  0
 11 12  1  0
 12 13  1  0
 13 14  2  0
 14 15  1  0
 15 16  1  0
 16 17  1  0
 17 18  1  0
 18 19  1  0
 16 20  1  0
 20 21  1  0
 21 22  1  0
 15 23  2  0
 23 24  1  0
  5 25  1  0
 25 26  1  0
 26 27  1  0
 27 28  1  0
 28 29  1  0
 29 30  1  0
 30 31  1  0
 31 32  1  0
 32 33  1  0
 33 34  2  0
 33 35  1  0
 35 36  1  0
 36 37  1  6
 36 38  1  0
 38 39  1  0
 39 40  1  0
 26  2  1  0
 40 29  1  0
 40  2  1  0
 24 12  2  0
 36 30  1  0
  1 41  1  0
  1 42  1  0
  1 43  1  0
  3 44  1  0
  3 45  1  0
  4 46  1  0
  4 47  1  0
  5 48  1  1
  9 49  1  0
  9 50  1  0
 10 51  1  0
 10 52  1  0
 11 53  1  0
 11 54  1  0
 13 55  1  0
 14 56  1  0
 17 57  1  0
 17 58  1  0
 18 59  1  0
 18 60  1  0
 20 61  1  0
 20 62  1  0
 21 63  1  0
 21 64  1  0
 23 65  1  0
 24 66  1  0
 25 67  1  0
 25 68  1  0
 26 69  1  1
 27 70  1  0
 27 71  1  0
 28 72  1  0
 28 73  1  0
 29 74  1  6
 30 75  1  1
 31 76  1  0
 31 77  1  0
 32 78  1  0
 32 79  1  0
 35 80  1  0
 37 81  1  0
 37 82  1  0
 37 83  1  0
 38 84  1  0
 38 85  1  0
 39 86  1  0
 39 87  1  0
 40 88  1  1
M  END
>  <meeko>  (6) 
{"is_sidechain": [false], "free_energy": -7.092, "intermolecular_energy": -12.225, "internal_energy": -3.01}

$$$$
SCHEMBL29564401_10008594_out
     RDKit          3D

 88 92  0  0  0  0  0  0  0  0999 V2000
   34.1370   78.4680   18.9650 C   0  0  0  0  0  0  0  0  0  0  0  0
   32.9820   77.8070   18.1670 C   0  0  2  0  0  0  0  0  0  0  0  0
   33.5960   77.0900   16.9290 C   0  0  0  0  0  0  0  0  0  0  0  0
   34.1970   78.0510   15.9020 C   0  0  0  0  0  0  0  0  0  0  0  0
   33.2070   79.1230   15.4590 C   0  0  2  0  0  0  0  0  0  0  0  0
   33.8880   80.0550   14.6260 O   0  0  0  0  0  0  0  0  0  0  0  0
   33.6940   79.9020   13.2810 C   0  0  0  0  0  0  0  0  0  0  0  0
   34.5200   79.4780   12.4830 O   0  0  0  0  0  0  0  0  0  0  0  0
   32.3050   80.3670   12.9060 C   0  0  0  0  0  0  0  0  0  0  0  0
   31.4770   79.2800   12.2160 C   0  0  0  0  0  0  0  0  0  0  0  0
   30.2820   78.7860   13.0450 C   0  0  0  0  0  0  0  0  0  0  0  0
   30.5500   77.5430   13.8540 C   0  0  0  0  0  0  0  0  0  0  0  0
   29.9610   77.3860   15.1080 C   0  0  0  0  0  0  0  0  0  0  0  0
   30.2090   76.2350   15.8560 C   0  0  0  0  0  0  0  0  0  0  0  0
   31.0460   75.2400   15.3480 C   0  0  0  0  0  0  0  0  0  0  0  0
   31.2960   74.0760   16.1040 N   0  0  0  0  0  0  0  0  0  0  0  0
   30.5780   73.8350   17.3400 C   0  0  0  0  0  0  0  0  0  0  0  0
   30.3200   72.3500   17.5410 C   0  0  0  0  0  0  0  0  0  0  0  0
   30.2210   71.9360   19.2700 Cl  0  0  0  0  0  0  0  0  0  0  0  0
   32.2830   73.1120   15.6620 C   0  0  0  0  0  0  0  0  0  0  0  0
   33.6500   73.4220   16.2530 C   0  0  0  0  0  0  0  0  0  0  0  0
   33.8600   72.6560   17.8470 Cl  0  0  0  0  0  0  0  0  0  0  0  0
   31.6340   75.3980   14.0940 C   0  0  0  0  0  0  0  0  0  0  0  0
   31.3860   76.5480   13.3460 C   0  0  0  0  0  0  0  0  0  0  0  0
   32.5810   79.8550   16.6450 C   0  0  0  0  0  0  0  0  0  0  0  0
   31.9630   78.8650   17.6400 C   0  0  2  0  0  0  0  0  0  0  0  0
   31.2480   79.5930   18.7820 C   0  0  0  0  0  0  0  0  0  0  0  0
   30.4810   78.5940   19.6440 C   0  0  0  0  0  0  0  0  0  0  0  0
   31.3790   77.4720   20.1940 C   0  0  1  0  0  0  0  0  0  0  0  0
   30.5830   76.4640   21.0810 C   0  0  1  0  0  0  0  0  0  0  0  0
   29.3820   75.8230   20.3610 C   0  0  0  0  0  0  0  0  0  0  0  0
   28.5800   74.9580   21.3180 C   0  0  0  0  0  0  0  0  0  0  0  0
   29.4030   73.9510   22.0790 C   0  0  0  0  0  0  0  0  0  0  0  0
   28.8860   72.9310   22.5350 O   0  0  0  0  0  0  0  0  0  0  0  0
   30.7150   74.2830   22.3170 N   0  0  0  0  0  0  0  0  0  0  0  0
   31.4980   75.3430   21.6540 C   0  0  2  0  0  0  0  0  0  0  0  0
   32.4510   75.9190   22.7220 C   0  0  0  0  0  0  0  0  0  0  0  0
   32.3100   74.6780   20.5210 C   0  0  0  0  0  0  0  0  0  0  0  0
   33.0870   75.6680   19.6560 C   0  0  0  0  0  0  0  0  0  0  0  0
   32.1920   76.7750   19.0660 C   0  0  2  0  0  0  0  0  0  0  0  0
   33.9470   78.3593   20.0430 H   0  0  0  0  0  0  0  0  0  0  0  0
   35.0875   77.9771   18.7089 H   0  0  0  0  0  0  0  0  0  0  0  0
   34.1953   79.5362   18.7089 H   0  0  0  0  0  0  0  0  0  0  0  0
   34.3893   76.4123   17.2774 H   0  0  0  0  0  0  0  0  0  0  0  0
   32.7775   76.5523   16.4281 H   0  0  0  0  0  0  0  0  0  0  0  0
   35.0734   78.5428   16.3492 H   0  0  0  0  0  0  0  0  0  0  0  0
   34.4735   77.4629   15.0145 H   0  0  0  0  0  0  0  0  0  0  0  0
   32.3894   78.6323   14.9106 H   0  0  0  0  0  0  0  0  0  0  0  0
   31.7807   80.6792   13.8212 H   0  0  0  0  0  0  0  0  0  0  0  0
   32.4169   81.1977   12.1936 H   0  0  0  0  0  0  0  0  0  0  0  0
   31.0960   79.6852   11.2670 H   0  0  0  0  0  0  0  0  0  0  0  0
   32.1427   78.4165   12.0703 H   0  0  0  0  0  0  0  0  0  0  0  0
   29.9892   79.5892   13.7372 H   0  0  0  0  0  0  0  0  0  0  0  0
   29.4908   78.5255   12.3265 H   0  0  0  0  0  0  0  0  0  0  0  0
   29.3007   78.1699   15.5075 H   0  0  0  0  0  0  0  0  0  0  0  0
   29.7452   76.1115   16.8458 H   0  0  0  0  0  0  0  0  0  0  0  0
   31.1755   74.2133   18.1825 H   0  0  0  0  0  0  0  0  0  0  0  0
   29.6098   74.3547   17.2894 H   0  0  0  0  0  0  0  0  0  0  0  0
   29.3706   72.0826   17.0540 H   0  0  0  0  0  0  0  0  0  0  0  0
   31.1570   71.7902   17.0983 H   0  0  0  0  0  0  0  0  0  0  0  0
   31.9723   72.1065   15.9820 H   0  0  0  0  0  0  0  0  0  0  0  0
   32.3555   73.1620   14.5655 H   0  0  0  0  0  0  0  0  0  0  0  0
   34.4276   73.0475   15.5711 H   0  0  0  0  0  0  0  0  0  0  0  0
   33.7325   74.5115   16.3798 H   0  0  0  0  0  0  0  0  0  0  0  0
   32.2944   74.6144   13.6942 H   0  0  0  0  0  0  0  0  0  0  0  0
   31.8491   76.6709   12.3558 H   0  0  0  0  0  0  0  0  0  0  0  0
   33.3587   80.4408   17.1569 H   0  0  0  0  0  0  0  0  0  0  0  0
   31.7855   80.5149   16.2684 H   0  0  0  0  0  0  0  0  0  0  0  0
   31.2057   78.2955   17.0813 H   0  0  0  0  0  0  0  0  0  0  0  0
   31.9917   80.1135   19.4033 H   0  0  0  0  0  0  0  0  0  0  0  0
   30.5396   80.3195   18.3573 H   0  0  0  0  0  0  0  0  0  0  0  0
   30.0318   79.1325   20.4915 H   0  0  0  0  0  0  0  0  0  0  0  0
   29.7155   78.1253   19.0081 H   0  0  0  0  0  0  0  0  0  0  0  0
   32.1172   77.9437   20.8592 H   0  0  0  0  0  0  0  0  0  0  0  0
   30.1888   77.0722   21.9085 H   0  0  0  0  0  0  0  0  0  0  0  0
   28.7337   76.6176   19.9631 H   0  0  0  0  0  0  0  0  0  0  0  0
   29.7572   75.1904   19.5431 H   0  0  0  0  0  0  0  0  0  0  0  0
   28.0832   75.6173   22.0450 H   0  0  0  0  0  0  0  0  0  0  0  0
   27.8681   74.3856   20.7052 H   0  0  0  0  0  0  0  0  0  0  0  0
   31.2040   73.7330   23.0390 H   0  0  0  0  0  0  0  0  0  0  0  0
   32.0631   75.6846   23.7243 H   0  0  0  0  0  0  0  0  0  0  0  0
   33.4492   75.4729   22.6016 H   0  0  0  0  0  0  0  0  0  0  0  0
   32.5201   77.0102   22.6016 H   0  0  0  0  0  0  0  0  0  0  0  0
   33.0262   73.9764   20.9735 H   0  0  0  0  0  0  0  0  0  0  0  0
   31.5872   74.1753   19.8616 H   0  0  0  0  0  0  0  0  0  0  0  0
   33.8666   76.1380   20.2735 H   0  0  0  0  0  0  0  0  0  0  0  0
   33.5175   75.1059   18.8141 H   0  0  0  0  0  0  0  0  0  0  0  0
   31.4826   76.2884   18.3805 H   0  0  0  0  0  0  0  0  0  0  0  0
  2  1  1  1
  2  3  1  0
  3  4  1  0
  4  5  1  0
  5  6  1  0
  6  7  1  0
  7  8  2  0
  7  9  1  0
  9 10  1  0
 10 11  1  0
 11 12  1  0
 12 13  1  0
 13 14  2  0
 14 15  1  0
 15 16  1  0
 16 17  1  0
 17 18  1  0
 18 19  1  0
 16 20  1  0
 20 21  1  0
 21 22  1  0
 15 23  2  0
 23 24  1  0
  5 25  1  0
 25 26  1  0
 26 27  1  0
 27 28  1  0
 28 29  1  0
 29 30  1  0
 30 31  1  0
 31 32  1  0
 32 33  1  0
 33 34  2  0
 33 35  1  0
 35 36  1  0
 36 37  1  1
 36 38  1  0
 38 39  1  0
 39 40  1  0
 26  2  1  0
 40 29  1  0
 40  2  1  0
 24 12  2  0
 36 30  1  0
  1 41  1  0
  1 42  1  0
  1 43  1  0
  3 44  1  0
  3 45  1  0
  4 46  1  0
  4 47  1  0
  5 48  1  6
  9 49  1  0
  9 50  1  0
 10 51  1  0
 10 52  1  0
 11 53  1  0
 11 54  1  0
 13 55  1  0
 14 56  1  0
 17 57  1  0
 17 58  1  0
 18 59  1  0
 18 60  1  0
 20 61  1  0
 20 62  1  0
 21 63  1  0
 21 64  1  0
 23 65  1  0
 24 66  1  0
 25 67  1  0
 25 68  1  0
 26 69  1  6
 27 70  1  0
 27 71  1  0
 28 72  1  0
 28 73  1  0
 29 74  1  1
 30 75  1  1
 31 76  1  0
 31 77  1  0
 32 78  1  0
 32 79  1  0
 35 80  1  0
 37 81  1  0
 37 82  1  0
 37 83  1  0
 38 84  1  0
 38 85  1  0
 39 86  1  0
 39 87  1  0
 40 88  1  6
M  END
>  <meeko>  (7) 
{"is_sidechain": [false], "free_energy": -7.019, "intermolecular_energy": -10.979, "internal_energy": -4.137}

$$$$
SCHEMBL29564401_10008594_out
     RDKit          3D

 88 92  0  0  0  0  0  0  0  0999 V2000
   32.6900   80.3240   18.9580 C   0  0  0  0  0  0  0  0  0  0  0  0
   31.8770   79.2900   18.1350 C   0  0  2  0  0  0  0  0  0  0  0  0
   32.7640   78.8040   16.9520 C   0  0  0  0  0  0  0  0  0  0  0  0
   33.0540   79.8940   15.9180 C   0  0  0  0  0  0  0  0  0  0  0  0
   31.7810   80.5500   15.3930 C   0  0  2  0  0  0  0  0  0  0  0  0
   32.1440   81.6440   14.5570 O   0  0  0  0  0  0  0  0  0  0  0  0
   32.4910   81.3200   13.2740 C   0  0  0  0  0  0  0  0  0  0  0  0
   33.5930   81.4880   12.7680 O   0  0  0  0  0  0  0  0  0  0  0  0
   31.2960   80.7460   12.5470 C   0  0  0  0  0  0  0  0  0  0  0  0
   31.4590   79.2630   12.2070 C   0  0  0  0  0  0  0  0  0  0  0  0
   30.2860   78.3850   12.6690 C   0  0  0  0  0  0  0  0  0  0  0  0
   30.6400   77.3660   13.7210 C   0  0  0  0  0  0  0  0  0  0  0  0
   31.6150   76.4040   13.4600 C   0  0  0  0  0  0  0  0  0  0  0  0
   31.9420   75.4600   14.4340 C   0  0  0  0  0  0  0  0  0  0  0  0
   31.2940   75.4800   15.6690 C   0  0  0  0  0  0  0  0  0  0  0  0
   31.6250   74.5260   16.6540 N   0  0  0  0  0  0  0  0  0  0  0  0
   32.8250   73.7250   16.5250 C   0  0  0  0  0  0  0  0  0  0  0  0
   33.8840   74.1610   17.5250 C   0  0  0  0  0  0  0  0  0  0  0  0
   34.6540   75.6900   17.0320 Cl  0  0  0  0  0  0  0  0  0  0  0  0
   30.7630   74.3260   17.8010 C   0  0  0  0  0  0  0  0  0  0  0  0
   30.3250   72.8730   17.9070 C   0  0  0  0  0  0  0  0  0  0  0  0
   30.7220   72.1890   19.5020 Cl  0  0  0  0  0  0  0  0  0  0  0  0
   30.3200   76.4430   15.9300 C   0  0  0  0  0  0  0  0  0  0  0  0
   29.9920   77.3860   14.9560 C   0  0  0  0  0  0  0  0  0  0  0  0
   30.8790   81.0450   16.5230 C   0  0  0  0  0  0  0  0  0  0  0  0
   30.5860   79.9220   17.5260 C   0  0  2  0  0  0  0  0  0  0  0  0
   29.6050   80.3820   18.6090 C   0  0  0  0  0  0  0  0  0  0  0  0
   29.1830   79.1970   19.4720 C   0  0  0  0  0  0  0  0  0  0  0  0
   30.3810   78.4630   20.1020 C   0  0  1  0  0  0  0  0  0  0  0  0
   29.9330   77.2600   20.9900 C   0  0  1  0  0  0  0  0  0  0  0  0
   29.0640   76.2310   20.2420 C   0  0  0  0  0  0  0  0  0  0  0  0
   28.5590   75.1620   21.1950 C   0  0  0  0  0  0  0  0  0  0  0  0
   29.6350   74.5150   22.0270 C   0  0  0  0  0  0  0  0  0  0  0  0
   29.4760   73.3880   22.4970 O   0  0  0  0  0  0  0  0  0  0  0  0
   30.7390   75.2830   22.3100 N   0  0  0  0  0  0  0  0  0  0  0  0
   31.1450   76.5340   21.6420 C   0  0  2  0  0  0  0  0  0  0  0  0
   31.7840   77.4240   22.7290 C   0  0  0  0  0  0  0  0  0  0  0  0
   32.1950   76.1680   20.5710 C   0  0  0  0  0  0  0  0  0  0  0  0
   32.6300   77.3480   19.7050 C   0  0  0  0  0  0  0  0  0  0  0  0
   31.4420   78.0670   19.0360 C   0  0  2  0  0  0  0  0  0  0  0  0
   32.5421   80.1359   20.0317 H   0  0  0  0  0  0  0  0  0  0  0  0
   33.7582   80.2294   18.7129 H   0  0  0  0  0  0  0  0  0  0  0  0
   32.3461   81.3397   18.7129 H   0  0  0  0  0  0  0  0  0  0  0  0
   33.7215   78.4465   17.3588 H   0  0  0  0  0  0  0  0  0  0  0  0
   32.2068   78.0085   16.4356 H   0  0  0  0  0  0  0  0  0  0  0  0
   33.6826   80.6663   16.3854 H   0  0  0  0  0  0  0  0  0  0  0  0
   33.5640   79.4211   15.0658 H   0  0  0  0  0  0  0  0  0  0  0  0
   31.2127   79.7965   14.8280 H   0  0  0  0  0  0  0  0  0  0  0  0
   30.4077   80.8638   13.1850 H   0  0  0  0  0  0  0  0  0  0  0  0
   31.1948   81.2922   11.5975 H   0  0  0  0  0  0  0  0  0  0  0  0
   31.5547   79.1666   11.1154 H   0  0  0  0  0  0  0  0  0  0  0  0
   32.3524   78.9093   12.7425 H   0  0  0  0  0  0  0  0  0  0  0  0
   29.5054   79.0432   13.0782 H   0  0  0  0  0  0  0  0  0  0  0  0
   29.9546   77.8186   11.7862 H   0  0  0  0  0  0  0  0  0  0  0  0
   32.1264   76.3893   12.4862 H   0  0  0  0  0  0  0  0  0  0  0  0
   32.7105   74.7004   14.2280 H   0  0  0  0  0  0  0  0  0  0  0  0
   32.5735   72.6694   16.7053 H   0  0  0  0  0  0  0  0  0  0  0  0
   33.2269   73.8586   15.5098 H   0  0  0  0  0  0  0  0  0  0  0  0
   33.4118   74.2991   18.5088 H   0  0  0  0  0  0  0  0  0  0  0  0
   34.6592   73.3819   17.5698 H   0  0  0  0  0  0  0  0  0  0  0  0
   31.3091   74.6046   18.7143 H   0  0  0  0  0  0  0  0  0  0  0  0
   29.8679   74.9539   17.6805 H   0  0  0  0  0  0  0  0  0  0  0  0
   29.2373   72.8151   17.7535 H   0  0  0  0  0  0  0  0  0  0  0  0
   30.8592   72.2937   17.1395 H   0  0  0  0  0  0  0  0  0  0  0  0
   29.8100   76.4590   16.9045 H   0  0  0  0  0  0  0  0  0  0  0  0
   29.2228   78.1450   15.1617 H   0  0  0  0  0  0  0  0  0  0  0  0
   31.3798   81.8728   17.0463 H   0  0  0  0  0  0  0  0  0  0  0  0
   29.9268   81.3831   16.0882 H   0  0  0  0  0  0  0  0  0  0  0  0
   30.1007   79.1156   16.9565 H   0  0  0  0  0  0  0  0  0  0  0  0
   30.0911   81.1386   19.2425 H   0  0  0  0  0  0  0  0  0  0  0  0
   28.7142   80.8125   18.1283 H   0  0  0  0  0  0  0  0  0  0  0  0
   28.5314   79.5638   20.2788 H   0  0  0  0  0  0  0  0  0  0  0  0
   28.6607   78.4812   18.8203 H   0  0  0  0  0  0  0  0  0  0  0  0
   30.8760   79.1723   20.7816 H   0  0  0  0  0  0  0  0  0  0  0  0
   29.3111   77.7108   21.7774 H   0  0  0  0  0  0  0  0  0  0  0  0
   28.2043   76.7459   19.7885 H   0  0  0  0  0  0  0  0  0  0  0  0
   29.6751   75.7510   19.4635 H   0  0  0  0  0  0  0  0  0  0  0  0
   27.8286   75.6242   21.8754 H   0  0  0  0  0  0  0  0  0  0  0  0
   28.1209   74.3673   20.5733 H   0  0  0  0  0  0  0  0  0  0  0  0
   31.3470   74.9490   23.0710 H   0  0  0  0  0  0  0  0  0  0  0  0
   31.5098   77.0421   23.7235 H   0  0  0  0  0  0  0  0  0  0  0  0
   32.8784   77.4083   22.6191 H   0  0  0  0  0  0  0  0  0  0  0  0
   31.4192   78.4559   22.6191 H   0  0  0  0  0  0  0  0  0  0  0  0
   33.0833   75.7653   21.0797 H   0  0  0  0  0  0  0  0  0  0  0  0
   31.7251   75.4343   19.8996 H   0  0  0  0  0  0  0  0  0  0  0  0
   33.1665   78.0699   20.3383 H   0  0  0  0  0  0  0  0  0  0  0  0
   33.2718   76.9525   18.9040 H   0  0  0  0  0  0  0  0  0  0  0  0
   30.9799   77.3530   18.3384 H   0  0  0  0  0  0  0  0  0  0  0  0
  2  1  1  1
  2  3  1  0
  3  4  1  0
  4  5  1  0
  5  6  1  0
  6  7  1  0
  7  8  2  0
  7  9  1  0
  9 10  1  0
 10 11  1  0
 11 12  1  0
 12 13  1  0
 13 14  2  0
 14 15  1  0
 15 16  1  0
 16 17  1  0
 17 18  1  0
 18 19  1  0
 16 20  1  0
 20 21  1  0
 21 22  1  0
 15 23  2  0
 23 24  1  0
  5 25  1  0
 25 26  1  0
 26 27  1  0
 27 28  1  0
 28 29  1  0
 29 30  1  0
 30 31  1  0
 31 32  1  0
 32 33  1  0
 33 34  2  0
 33 35  1  0
 35 36  1  0
 36 37  1  1
 36 38  1  0
 38 39  1  0
 39 40  1  0
 26  2  1  0
 40 29  1  0
 40  2  1  0
 24 12  2  0
 36 30  1  0
  1 41  1  0
  1 42  1  0
  1 43  1  0
  3 44  1  0
  3 45  1  0
  4 46  1  0
  4 47  1  0
  5 48  1  6
  9 49  1  0
  9 50  1  0
 10 51  1  0
 10 52  1  0
 11 53  1  0
 11 54  1  0
 13 55  1  0
 14 56  1  0
 17 57  1  0
 17 58  1  0
 18 59  1  0
 18 60  1  0
 20 61  1  0
 20 62  1  0
 21 63  1  0
 21 64  1  0
 23 65  1  0
 24 66  1  0
 25 67  1  0
 25 68  1  0
 26 69  1  6
 27 70  1  0
 27 71  1  0
 28 72  1  0
 28 73  1  0
 29 74  1  1
 30 75  1  1
 31 76  1  0
 31 77  1  0
 32 78  1  0
 32 79  1  0
 35 80  1  0
 37 81  1  0
 37 82  1  0
 37 83  1  0
 38 84  1  0
 38 85  1  0
 39 86  1  0
 39 87  1  0
 40 88  1  6
M  END
>  <meeko>  (8) 
{"is_sidechain": [false], "free_energy": -6.853, "intermolecular_energy": -10.89, "internal_energy": -3.954}

$$$$
SCHEMBL29564401_10008594_out
     RDKit          3D

 88 92  0  0  0  0  0  0  0  0999 V2000
   31.7190   73.2550   19.7180 C   0  0  0  0  0  0  0  0  0  0  0  0
   30.3590   73.1920   18.9730 C   0  0  2  0  0  0  0  0  0  0  0  0
   30.0340   74.6150   18.4320 C   0  0  0  0  0  0  0  0  0  0  0  0
   29.7570   75.6380   19.5350 C   0  0  0  0  0  0  0  0  0  0  0  0
   28.6700   75.1750   20.4990 C   0  0  2  0  0  0  0  0  0  0  0  0
   28.5830   76.1100   21.5700 O   0  0  0  0  0  0  0  0  0  0  0  0
   29.5090   77.1170   21.5550 C   0  0  0  0  0  0  0  0  0  0  0  0
   29.3850   78.1930   20.9840 O   0  0  0  0  0  0  0  0  0  0  0  0
   30.7390   76.6960   22.3260 C   0  0  0  0  0  0  0  0  0  0  0  0
   31.8390   77.7600   22.3230 C   0  0  0  0  0  0  0  0  0  0  0  0
   33.1330   77.3160   21.6240 C   0  0  0  0  0  0  0  0  0  0  0  0
   33.0800   77.3570   20.1190 C   0  0  0  0  0  0  0  0  0  0  0  0
   32.5370   78.4640   19.4690 C   0  0  0  0  0  0  0  0  0  0  0  0
   32.4870   78.5000   18.0760 C   0  0  0  0  0  0  0  0  0  0  0  0
   32.9830   77.4290   17.3320 C   0  0  0  0  0  0  0  0  0  0  0  0
   32.9340   77.4670   15.9230 N   0  0  0  0  0  0  0  0  0  0  0  0
   34.1450   77.6620   15.1520 C   0  0  0  0  0  0  0  0  0  0  0  0
   34.3350   76.5420   14.1410 C   0  0  0  0  0  0  0  0  0  0  0  0
   34.8820   75.0410   14.9290 Cl  0  0  0  0  0  0  0  0  0  0  0  0
   31.6700   77.3250   15.2290 C   0  0  0  0  0  0  0  0  0  0  0  0
   31.0410   75.9690   15.5120 C   0  0  0  0  0  0  0  0  0  0  0  0
   31.1390   74.8970   14.0930 Cl  0  0  0  0  0  0  0  0  0  0  0  0
   33.5270   76.3220   17.9820 C   0  0  0  0  0  0  0  0  0  0  0  0
   33.5750   76.2850   19.3750 C   0  0  0  0  0  0  0  0  0  0  0  0
   28.9510   73.7800   21.0570 C   0  0  0  0  0  0  0  0  0  0  0  0
   29.1960   72.7730   19.9270 C   0  0  2  0  0  0  0  0  0  0  0  0
   29.3810   71.3540   20.4720 C   0  0  0  0  0  0  0  0  0  0  0  0
   29.4270   70.3520   19.3230 C   0  0  0  0  0  0  0  0  0  0  0  0
   30.5190   70.6820   18.2880 C   0  0  1  0  0  0  0  0  0  0  0  0
   30.5600   69.6420   17.1250 C   0  0  1  0  0  0  0  0  0  0  0  0
   29.2160   69.4870   16.3880 C   0  0  0  0  0  0  0  0  0  0  0  0
   29.2930   68.3720   15.3610 C   0  0  0  0  0  0  0  0  0  0  0  0
   30.4610   68.4800   14.4160 C   0  0  0  0  0  0  0  0  0  0  0  0
   30.4260   67.9450   13.3070 O   0  0  0  0  0  0  0  0  0  0  0  0
   31.5840   69.1100   14.8960 N   0  0  0  0  0  0  0  0  0  0  0  0
   31.6780   69.9670   16.0930 C   0  0  2  0  0  0  0  0  0  0  0  0
   33.0690   69.7100   16.7080 C   0  0  0  0  0  0  0  0  0  0  0  0
   31.5690   71.4340   15.6220 C   0  0  0  0  0  0  0  0  0  0  0  0
   31.5280   72.4470   16.7640 C   0  0  0  0  0  0  0  0  0  0  0  0
   30.4140   72.1500   17.7860 C   0  0  2  0  0  0  0  0  0  0  0  0
   31.5430   73.2468   20.8038 H   0  0  0  0  0  0  0  0  0  0  0  0
   32.3305   72.3842   19.4391 H   0  0  0  0  0  0  0  0  0  0  0  0
   32.2474   74.1786   19.4391 H   0  0  0  0  0  0  0  0  0  0  0  0
   30.8911   74.9661   17.8386 H   0  0  0  0  0  0  0  0  0  0  0  0
   29.1168   74.5310   17.8305 H   0  0  0  0  0  0  0  0  0  0  0  0
   30.6844   75.8052   20.1025 H   0  0  0  0  0  0  0  0  0  0  0  0
   29.4061   76.5628   19.0537 H   0  0  0  0  0  0  0  0  0  0  0  0
   27.7197   75.1211   19.9477 H   0  0  0  0  0  0  0  0  0  0  0  0
   30.4482   76.4952   23.3677 H   0  0  0  0  0  0  0  0  0  0  0  0
   31.1458   75.8004   21.8337 H   0  0  0  0  0  0  0  0  0  0  0  0
   31.4557   78.6529   21.8074 H   0  0  0  0  0  0  0  0  0  0  0  0
   32.0956   77.9568   23.3744 H   0  0  0  0  0  0  0  0  0  0  0  0
   33.9466   77.9773   21.9566 H   0  0  0  0  0  0  0  0  0  0  0  0
   33.2911   76.2633   21.9013 H   0  0  0  0  0  0  0  0  0  0  0  0
   32.1478   79.3095   20.0552 H   0  0  0  0  0  0  0  0  0  0  0  0
   32.0564   79.3729   17.5636 H   0  0  0  0  0  0  0  0  0  0  0  0
   34.0805   78.6214   14.6178 H   0  0  0  0  0  0  0  0  0  0  0  0
   35.0025   77.6608   15.8410 H   0  0  0  0  0  0  0  0  0  0  0  0
   33.3777   76.3516   13.6337 H   0  0  0  0  0  0  0  0  0  0  0  0
   35.1040   76.8541   13.4190 H   0  0  0  0  0  0  0  0  0  0  0  0
   30.9843   78.1167   15.5652 H   0  0  0  0  0  0  0  0  0  0  0  0
   31.8533   77.4070   14.1475 H   0  0  0  0  0  0  0  0  0  0  0  0
   31.5701   75.4979   16.3535 H   0  0  0  0  0  0  0  0  0  0  0  0
   29.9796   76.1242   15.7554 H   0  0  0  0  0  0  0  0  0  0  0  0
   33.9184   75.4776   17.3957 H   0  0  0  0  0  0  0  0  0  0  0  0
   34.0030   75.4109   19.8876 H   0  0  0  0  0  0  0  0  0  0  0  0
   29.8427   73.8229   21.6996 H   0  0  0  0  0  0  0  0  0  0  0  0
   28.0742   73.4512   21.6342 H   0  0  0  0  0  0  0  0  0  0  0  0
   28.2876   72.7750   19.3067 H   0  0  0  0  0  0  0  0  0  0  0  0
   30.3228   71.3017   21.0380 H   0  0  0  0  0  0  0  0  0  0  0  0
   28.5343   71.1082   21.1298 H   0  0  0  0  0  0  0  0  0  0  0  0
   29.6249   69.3520   19.7362 H   0  0  0  0  0  0  0  0  0  0  0  0
   28.4567   70.3949   18.8065 H   0  0  0  0  0  0  0  0  0  0  0  0
   31.4890   70.6000   18.8001 H   0  0  0  0  0  0  0  0  0  0  0  0
   30.7829   68.6831   17.6158 H   0  0  0  0  0  0  0  0  0  0  0  0
   28.4285   69.2511   17.1188 H   0  0  0  0  0  0  0  0  0  0  0  0
   28.9858   70.4297   15.8700 H   0  0  0  0  0  0  0  0  0  0  0  0
   29.3708   67.4146   15.8970 H   0  0  0  0  0  0  0  0  0  0  0  0
   28.3831   68.4453   14.7472 H   0  0  0  0  0  0  0  0  0  0  0  0
   32.4540   68.9660   14.3630 H   0  0  0  0  0  0  0  0  0  0  0  0
   32.9930   69.7240   17.8053 H   0  0  0  0  0  0  0  0  0  0  0  0
   33.4398   68.7281   16.3787 H   0  0  0  0  0  0  0  0  0  0  0  0
   33.7662   70.4945   16.3787 H   0  0  0  0  0  0  0  0  0  0  0  0
   32.4395   71.6604   14.9888 H   0  0  0  0  0  0  0  0  0  0  0  0
   30.6172   71.5258   15.0782 H   0  0  0  0  0  0  0  0  0  0  0  0
   32.4967   72.4288   17.2848 H   0  0  0  0  0  0  0  0  0  0  0  0
   31.3195   73.4335   16.3242 H   0  0  0  0  0  0  0  0  0  0  0  0
   29.4529   72.2669   17.2639 H   0  0  0  0  0  0  0  0  0  0  0  0
  2  1  1  1
  2  3  1  0
  3  4  1  0
  4  5  1  0
  5  6  1  0
  6  7  1  0
  7  8  2  0
  7  9  1  0
  9 10  1  0
 10 11  1  0
 11 12  1  0
 12 13  1  0
 13 14  2  0
 14 15  1  0
 15 16  1  0
 16 17  1  0
 17 18  1  0
 18 19  1  0
 16 20  1  0
 20 21  1  0
 21 22  1  0
 15 23  2  0
 23 24  1  0
  5 25  1  0
 25 26  1  0
 26 27  1  0
 27 28  1  0
 28 29  1  0
 29 30  1  0
 30 31  1  0
 31 32  1  0
 32 33  1  0
 33 34  2  0
 33 35  1  0
 35 36  1  0
 36 37  1  1
 36 38  1  0
 38 39  1  0
 39 40  1  0
 26  2  1  0
 40 29  1  0
 40  2  1  0
 24 12  2  0
 36 30  1  0
  1 41  1  0
  1 42  1  0
  1 43  1  0
  3 44  1  0
  3 45  1  0
  4 46  1  0
  4 47  1  0
  5 48  1  6
  9 49  1  0
  9 50  1  0
 10 51  1  0
 10 52  1  0
 11 53  1  0
 11 54  1  0
 13 55  1  0
 14 56  1  0
 17 57  1  0
 17 58  1  0
 18 59  1  0
 18 60  1  0
 20 61  1  0
 20 62  1  0
 21 63  1  0
 21 64  1  0
 23 65  1  0
 24 66  1  0
 25 67  1  0
 25 68  1  0
 26 69  1  6
 27 70  1  0
 27 71  1  0
 28 72  1  0
 28 73  1  0
 29 74  1  1
 30 75  1  1
 31 76  1  0
 31 77  1  0
 32 78  1  0
 32 79  1  0
 35 80  1  0
 37 81  1  0
 37 82  1  0
 37 83  1  0
 38 84  1  0
 38 85  1  0
 39 86  1  0
 39 87  1  0
 40 88  1  6
M  END
>  <meeko>  (9) 
{"is_sidechain": [false], "free_energy": -6.707, "intermolecular_energy": -12.183, "internal_energy": -2.42}

$$$$
