SCHEMBL24279188_10054794_out
     RDKit          3D

 75 79  0  0  0  0  0  0  0  0999 V2000
   28.9220   71.4770   14.4790 O   0  0  0  0  0  0  0  0  0  0  0  0
   29.8390   71.2050   15.2410 C   0  0  0  0  0  0  0  0  0  0  0  0
   31.2530   71.7200   15.0960 C   0  0  0  0  0  0  0  0  0  0  0  0
   31.3200   73.2370   14.9110 C   0  0  0  0  0  0  0  0  0  0  0  0
   32.4170   73.9190   15.7410 C   0  0  0  0  0  0  0  0  0  0  0  0
   31.9660   75.1500   16.4860 C   0  0  0  0  0  0  0  0  0  0  0  0
   30.6180   75.5060   16.4940 C   0  0  0  0  0  0  0  0  0  0  0  0
   30.2000   76.6440   17.1820 C   0  0  0  0  0  0  0  0  0  0  0  0
   31.1330   77.4280   17.8630 C   0  0  0  0  0  0  0  0  0  0  0  0
   30.7110   78.5810   18.5580 N   0  0  0  0  0  0  0  0  0  0  0  0
   31.6180   79.2700   19.4530 C   0  0  0  0  0  0  0  0  0  0  0  0
   32.3140   80.4210   18.7440 C   0  0  0  0  0  0  0  0  0  0  0  0
   33.6360   81.0900   19.7330 Cl  0  0  0  0  0  0  0  0  0  0  0  0
   29.3590   79.0810   18.3980 C   0  0  0  0  0  0  0  0  0  0  0  0
   28.8450   79.6850   19.6950 C   0  0  0  0  0  0  0  0  0  0  0  0
   27.0660   79.6470   19.7710 Cl  0  0  0  0  0  0  0  0  0  0  0  0
   32.4820   77.0740   17.8540 C   0  0  0  0  0  0  0  0  0  0  0  0
   32.8980   75.9340   17.1650 C   0  0  0  0  0  0  0  0  0  0  0  0
   29.7680   70.3830   16.3240 O   0  0  0  0  0  0  0  0  0  0  0  0
   30.6780   70.6990   17.3930 C   0  0  2  0  0  0  0  0  0  0  0  0
   30.9450   69.4450   18.2160 C   0  0  0  0  0  0  0  0  0  0  0  0
   29.9390   68.9110   19.0220 C   0  0  0  0  0  0  0  0  0  0  0  0
   30.1840   67.7640   19.7750 C   0  0  0  0  0  0  0  0  0  0  0  0
   31.4350   67.1480   19.7220 C   0  0  0  0  0  0  0  0  0  0  0  0
   32.4400   67.6810   18.9160 C   0  0  0  0  0  0  0  0  0  0  0  0
   32.1960   68.8290   18.1620 C   0  0  0  0  0  0  0  0  0  0  0  0
   30.2100   71.8620   18.2060 C   0  0  0  0  0  0  0  0  0  0  0  0
   28.8480   72.1540   18.2430 C   0  0  0  0  0  0  0  0  0  0  0  0
   28.3840   73.2340   18.9940 C   0  0  0  0  0  0  0  0  0  0  0  0
   27.0400   73.4660   18.9900 O   0  0  0  0  0  0  0  0  0  0  0  0
   29.2880   74.0260   19.7130 C   0  0  0  0  0  0  0  0  0  0  0  0
   30.6520   73.7330   19.6750 C   0  0  0  0  0  0  0  0  0  0  0  0
   31.1140   72.6480   18.9200 C   0  0  0  0  0  0  0  0  0  0  0  0
   32.4370   72.3230   18.8510 O   0  0  0  0  0  0  0  0  0  0  0  0
   31.6180   74.5610   20.4270 C   0  0  0  0  0  0  0  0  0  0  0  0
   32.8190   74.3260   20.4130 O   0  0  0  0  0  0  0  0  0  0  0  0
   31.1180   75.7020   21.2200 C   0  0  0  0  0  0  0  0  0  0  0  0
   32.0220   76.4940   21.9390 C   0  0  0  0  0  0  0  0  0  0  0  0
   31.5590   77.5740   22.6910 C   0  0  0  0  0  0  0  0  0  0  0  0
   30.1970   77.8660   22.7280 C   0  0  0  0  0  0  0  0  0  0  0  0
   29.2920   77.0800   22.0150 C   0  0  0  0  0  0  0  0  0  0  0  0
   29.7530   75.9950   21.2590 C   0  0  0  0  0  0  0  0  0  0  0  0
   28.7880   75.1680   20.5070 C   0  0  0  0  0  0  0  0  0  0  0  0
   27.5970   75.4450   20.5560 O   0  0  0  0  0  0  0  0  0  0  0  0
   31.8183   71.4518   16.0007 H   0  0  0  0  0  0  0  0  0  0  0  0
   31.6804   71.2590   14.1933 H   0  0  0  0  0  0  0  0  0  0  0  0
   31.5089   73.4479   13.8481 H   0  0  0  0  0  0  0  0  0  0  0  0
   30.3587   73.6430   15.2588 H   0  0  0  0  0  0  0  0  0  0  0  0
   32.7935   73.1920   16.4756 H   0  0  0  0  0  0  0  0  0  0  0  0
   33.1868   74.2501   15.0285 H   0  0  0  0  0  0  0  0  0  0  0  0
   29.8834   74.8881   15.9567 H   0  0  0  0  0  0  0  0  0  0  0  0
   29.1362   76.9239   17.1883 H   0  0  0  0  0  0  0  0  0  0  0  0
   31.0490   79.6652   20.3074 H   0  0  0  0  0  0  0  0  0  0  0  0
   32.3818   78.5563   19.7954 H   0  0  0  0  0  0  0  0  0  0  0  0
   32.7281   80.0570   17.7922 H   0  0  0  0  0  0  0  0  0  0  0  0
   31.5754   81.2172   18.5694 H   0  0  0  0  0  0  0  0  0  0  0  0
   29.3511   79.8524   17.6139 H   0  0  0  0  0  0  0  0  0  0  0  0
   28.7054   78.2414   18.1189 H   0  0  0  0  0  0  0  0  0  0  0  0
   29.2515   79.1126   20.5419 H   0  0  0  0  0  0  0  0  0  0  0  0
   29.1706   80.7347   19.7404 H   0  0  0  0  0  0  0  0  0  0  0  0
   33.2172   77.6927   18.3894 H   0  0  0  0  0  0  0  0  0  0  0  0
   33.9617   75.6537   17.1575 H   0  0  0  0  0  0  0  0  0  0  0  0
   31.6375   71.0282   16.9677 H   0  0  0  0  0  0  0  0  0  0  0  0
   28.9523   69.3954   19.0632 H   0  0  0  0  0  0  0  0  0  0  0  0
   29.3910   67.3442   20.4113 H   0  0  0  0  0  0  0  0  0  0  0  0
   31.6281   66.2424   20.3158 H   0  0  0  0  0  0  0  0  0  0  0  0
   33.4263   67.1958   18.8746 H   0  0  0  0  0  0  0  0  0  0  0  0
   32.9890   69.2483   17.5254 H   0  0  0  0  0  0  0  0  0  0  0  0
   28.1375   71.5318   17.6790 H   0  0  0  0  0  0  0  0  0  0  0  0
   26.4130   72.7500   19.2570 H   0  0  0  0  0  0  0  0  0  0  0  0
   33.0960   72.9930   18.5380 H   0  0  0  0  0  0  0  0  0  0  0  0
   33.0974   76.2644   21.9108 H   0  0  0  0  0  0  0  0  0  0  0  0
   32.2698   78.1956   23.2553 H   0  0  0  0  0  0  0  0  0  0  0  0
   29.8347   78.7186   23.3211 H   0  0  0  0  0  0  0  0  0  0  0  0
   28.2172   77.3121   22.0464 H   0  0  0  0  0  0  0  0  0  0  0  0
  1  2  2  0
  2  3  1  0
  3  4  1  0
  4  5  1  0
  5  6  1  0
  6  7  1  0
  7  8  2  0
  8  9  1  0
  9 10  1  0
 10 11  1  0
 11 12  1  0
 12 13  1  0
 10 14  1  0
 14 15  1  0
 15 16  1  0
  9 17  2  0
 17 18  1  0
  2 19  1  0
 19 20  1  0
 20 21  1  0
 21 22  2  0
 22 23  1  0
 23 24  2  0
 24 25  1  0
 25 26  2  0
 20 27  1  0
 27 28  1  0
 28 29  2  0
 29 30  1  0
 29 31  1  0
 31 32  2  0
 32 33  1  0
 33 34  1  0
 32 35  1  0
 35 36  2  0
 35 37  1  0
 37 38  2  0
 38 39  1  0
 39 40  2  0
 40 41  1  0
 41 42  2  0
 42 43  1  0
 43 44  2  0
 18  6  2  0
 26 21  1  0
 33 27  2  0
 42 37  1  0
 43 31  1  0
  3 45  1  0
  3 46  1  0
  4 47  1  0
  4 48  1  0
  5 49  1  0
  5 50  1  0
  7 51  1  0
  8 52  1  0
 11 53  1  0
 11 54  1  0
 12 55  1  0
 12 56  1  0
 14 57  1  0
 14 58  1  0
 15 59  1  0
 15 60  1  0
 17 61  1  0
 18 62  1  0
 20 63  1  6
 22 64  1  0
 23 65  1  0
 24 66  1  0
 25 67  1  0
 26 68  1  0
 28 69  1  0
 30 70  1  0
 34 71  1  0
 38 72  1  0
 39 73  1  0
 40 74  1  0
 41 75  1  0
M  END
>  <meeko>  (1) 
{"is_sidechain": [false], "free_energy": -7.764, "intermolecular_energy": -14.119, "internal_energy": -4.549}

$$$$
SCHEMBL24279188_10054794_out
     RDKit          3D

 75 79  0  0  0  0  0  0  0  0999 V2000
   31.6100   70.2740   14.4880 O   0  0  0  0  0  0  0  0  0  0  0  0
   30.7800   70.9360   15.0970 C   0  0  0  0  0  0  0  0  0  0  0  0
   30.3180   72.3160   14.6860 C   0  0  0  0  0  0  0  0  0  0  0  0
   31.3120   73.4150   15.0680 C   0  0  0  0  0  0  0  0  0  0  0  0
   31.0390   74.7650   14.3900 C   0  0  0  0  0  0  0  0  0  0  0  0
   30.7460   75.8970   15.3410 C   0  0  0  0  0  0  0  0  0  0  0  0
   30.9500   75.7280   16.7110 C   0  0  0  0  0  0  0  0  0  0  0  0
   30.6800   76.7750   17.5910 C   0  0  0  0  0  0  0  0  0  0  0  0
   30.2050   77.9920   17.1010 C   0  0  0  0  0  0  0  0  0  0  0  0
   29.9300   79.0510   17.9920 N   0  0  0  0  0  0  0  0  0  0  0  0
   28.8800   80.0040   17.6960 C   0  0  0  0  0  0  0  0  0  0  0  0
   28.2200   80.5030   18.9730 C   0  0  0  0  0  0  0  0  0  0  0  0
   27.1750   79.2540   19.6950 Cl  0  0  0  0  0  0  0  0  0  0  0  0
   30.7050   79.2070   19.2070 C   0  0  0  0  0  0  0  0  0  0  0  0
   32.0140   79.9310   18.9300 C   0  0  0  0  0  0  0  0  0  0  0  0
   33.1630   79.7400   20.2770 Cl  0  0  0  0  0  0  0  0  0  0  0  0
   30.0000   78.1620   15.7320 C   0  0  0  0  0  0  0  0  0  0  0  0
   30.2710   77.1140   14.8520 C   0  0  0  0  0  0  0  0  0  0  0  0
   30.1510   70.5740   16.2490 O   0  0  0  0  0  0  0  0  0  0  0  0
   30.8990   70.8100   17.4550 C   0  0  2  0  0  0  0  0  0  0  0  0
   30.9850   69.5180   18.2570 C   0  0  0  0  0  0  0  0  0  0  0  0
   29.8800   69.0730   18.9830 C   0  0  0  0  0  0  0  0  0  0  0  0
   29.9570   67.8900   19.7170 C   0  0  0  0  0  0  0  0  0  0  0  0
   31.1410   67.1510   19.7250 C   0  0  0  0  0  0  0  0  0  0  0  0
   32.2450   67.5960   18.9990 C   0  0  0  0  0  0  0  0  0  0  0  0
   32.1680   68.7790   18.2640 C   0  0  0  0  0  0  0  0  0  0  0  0
   30.3630   71.9660   18.2330 C   0  0  0  0  0  0  0  0  0  0  0  0
   28.9950   72.2300   18.1950 C   0  0  0  0  0  0  0  0  0  0  0  0
   28.4690   73.3030   18.9140 C   0  0  0  0  0  0  0  0  0  0  0  0
   27.1230   73.5070   18.8350 O   0  0  0  0  0  0  0  0  0  0  0  0
   29.3160   74.1170   19.6760 C   0  0  0  0  0  0  0  0  0  0  0  0
   30.6860   73.8540   19.7130 C   0  0  0  0  0  0  0  0  0  0  0  0
   31.2100   72.7760   18.9910 C   0  0  0  0  0  0  0  0  0  0  0  0
   32.5430   72.4780   18.9960 O   0  0  0  0  0  0  0  0  0  0  0  0
   31.5910   74.7050   20.5130 C   0  0  0  0  0  0  0  0  0  0  0  0
   32.7960   74.4960   20.5650 O   0  0  0  0  0  0  0  0  0  0  0  0
   31.0250   75.8400   21.2710 C   0  0  0  0  0  0  0  0  0  0  0  0
   31.8720   76.6540   22.0330 C   0  0  0  0  0  0  0  0  0  0  0  0
   31.3450   77.7270   22.7520 C   0  0  0  0  0  0  0  0  0  0  0  0
   29.9780   77.9900   22.7140 C   0  0  0  0  0  0  0  0  0  0  0  0
   29.1300   77.1810   21.9570 C   0  0  0  0  0  0  0  0  0  0  0  0
   29.6540   76.1030   21.2330 C   0  0  0  0  0  0  0  0  0  0  0  0
   28.7490   75.2520   20.4350 C   0  0  0  0  0  0  0  0  0  0  0  0
   27.5510   75.5040   20.4170 O   0  0  0  0  0  0  0  0  0  0  0  0
   30.1817   72.3299   13.5946 H   0  0  0  0  0  0  0  0  0  0  0  0
   29.3778   72.5216   15.2186 H   0  0  0  0  0  0  0  0  0  0  0  0
   31.2666   73.5594   16.1575 H   0  0  0  0  0  0  0  0  0  0  0  0
   32.3030   73.0813   14.7266 H   0  0  0  0  0  0  0  0  0  0  0  0
   31.9245   75.0361   13.7964 H   0  0  0  0  0  0  0  0  0  0  0  0
   30.1346   74.6295   13.7787 H   0  0  0  0  0  0  0  0  0  0  0  0
   31.3240   74.7682   17.0968 H   0  0  0  0  0  0  0  0  0  0  0  0
   30.8413   76.6418   18.6709 H   0  0  0  0  0  0  0  0  0  0  0  0
   29.3125   80.8596   17.1566 H   0  0  0  0  0  0  0  0  0  0  0  0
   28.1177   79.5050   17.0796 H   0  0  0  0  0  0  0  0  0  0  0  0
   29.0019   80.7775   19.6964 H   0  0  0  0  0  0  0  0  0  0  0  0
   27.5965   81.3741   18.7230 H   0  0  0  0  0  0  0  0  0  0  0  0
   30.1197   79.7881   19.9348 H   0  0  0  0  0  0  0  0  0  0  0  0
   30.9349   78.2082   19.6065 H   0  0  0  0  0  0  0  0  0  0  0  0
   32.4640   79.5183   18.0150 H   0  0  0  0  0  0  0  0  0  0  0  0
   31.7971   81.0028   18.8107 H   0  0  0  0  0  0  0  0  0  0  0  0
   29.6250   79.1216   15.3465 H   0  0  0  0  0  0  0  0  0  0  0  0
   30.1100   77.2474   13.7720 H   0  0  0  0  0  0  0  0  0  0  0  0
   31.9254   71.1070   17.1937 H   0  0  0  0  0  0  0  0  0  0  0  0
   28.9472   69.6559   18.9764 H   0  0  0  0  0  0  0  0  0  0  0  0
   29.0854   67.5395   20.2892 H   0  0  0  0  0  0  0  0  0  0  0  0
   31.2031   66.2177   20.3039 H   0  0  0  0  0  0  0  0  0  0  0  0
   33.1780   67.0134   19.0059 H   0  0  0  0  0  0  0  0  0  0  0  0
   33.0391   69.1287   17.6906 H   0  0  0  0  0  0  0  0  0  0  0  0
   28.3290   71.5908   17.5968 H   0  0  0  0  0  0  0  0  0  0  0  0
   26.6450   73.9510   19.5790 H   0  0  0  0  0  0  0  0  0  0  0  0
   32.8640   71.6400   18.5770 H   0  0  0  0  0  0  0  0  0  0  0  0
   32.9520   76.4476   22.0646 H   0  0  0  0  0  0  0  0  0  0  0  0
   32.0106   78.3667   23.3502 H   0  0  0  0  0  0  0  0  0  0  0  0
   29.5660   78.8372   23.2819 H   0  0  0  0  0  0  0  0  0  0  0  0
   28.0504   77.3899   21.9289 H   0  0  0  0  0  0  0  0  0  0  0  0
  1  2  2  0
  2  3  1  0
  3  4  1  0
  4  5  1  0
  5  6  1  0
  6  7  1  0
  7  8  2  0
  8  9  1  0
  9 10  1  0
 10 11  1  0
 11 12  1  0
 12 13  1  0
 10 14  1  0
 14 15  1  0
 15 16  1  0
  9 17  2  0
 17 18  1  0
  2 19  1  0
 19 20  1  0
 20 21  1  0
 21 22  2  0
 22 23  1  0
 23 24  2  0
 24 25  1  0
 25 26  2  0
 20 27  1  0
 27 28  1  0
 28 29  2  0
 29 30  1  0
 29 31  1  0
 31 32  2  0
 32 33  1  0
 33 34  1  0
 32 35  1  0
 35 36  2  0
 35 37  1  0
 37 38  2  0
 38 39  1  0
 39 40  2  0
 40 41  1  0
 41 42  2  0
 42 43  1  0
 43 44  2  0
 18  6  2  0
 26 21  1  0
 33 27  2  0
 42 37  1  0
 43 31  1  0
  3 45  1  0
  3 46  1  0
  4 47  1  0
  4 48  1  0
  5 49  1  0
  5 50  1  0
  7 51  1  0
  8 52  1  0
 11 53  1  0
 11 54  1  0
 12 55  1  0
 12 56  1  0
 14 57  1  0
 14 58  1  0
 15 59  1  0
 15 60  1  0
 17 61  1  0
 18 62  1  0
 20 63  1  6
 22 64  1  0
 23 65  1  0
 24 66  1  0
 25 67  1  0
 26 68  1  0
 28 69  1  0
 30 70  1  0
 34 71  1  0
 38 72  1  0
 39 73  1  0
 40 74  1  0
 41 75  1  0
M  END
>  <meeko>  (2) 
{"is_sidechain": [false], "free_energy": -7.756, "intermolecular_energy": -14.64, "internal_energy": -4.012}

$$$$
SCHEMBL24279188_10054794_out
     RDKit          3D

 75 79  0  0  0  0  0  0  0  0999 V2000
   28.1890   73.8590   20.1490 O   0  0  0  0  0  0  0  0  0  0  0  0
   29.0740   73.1900   20.6640 C   0  0  0  0  0  0  0  0  0  0  0  0
   29.6700   73.4620   22.0270 C   0  0  0  0  0  0  0  0  0  0  0  0
   30.9770   74.2540   21.9580 C   0  0  0  0  0  0  0  0  0  0  0  0
   30.8740   75.6780   22.5230 C   0  0  0  0  0  0  0  0  0  0  0  0
   30.3280   76.6980   21.5560 C   0  0  0  0  0  0  0  0  0  0  0  0
   29.5680   77.7690   22.0270 C   0  0  0  0  0  0  0  0  0  0  0  0
   29.0630   78.7120   21.1320 C   0  0  0  0  0  0  0  0  0  0  0  0
   29.3180   78.5840   19.7670 C   0  0  0  0  0  0  0  0  0  0  0  0
   28.8050   79.5380   18.8620 N   0  0  0  0  0  0  0  0  0  0  0  0
   29.4200   79.7200   17.5630 C   0  0  0  0  0  0  0  0  0  0  0  0
   30.4620   80.8270   17.6030 C   0  0  0  0  0  0  0  0  0  0  0  0
   32.1050   80.1650   17.7920 Cl  0  0  0  0  0  0  0  0  0  0  0  0
   27.6680   80.3590   19.2280 C   0  0  0  0  0  0  0  0  0  0  0  0
   26.3610   79.6240   18.9720 C   0  0  0  0  0  0  0  0  0  0  0  0
   25.7200   79.9780   17.3480 Cl  0  0  0  0  0  0  0  0  0  0  0  0
   30.0770   77.5140   19.2950 C   0  0  0  0  0  0  0  0  0  0  0  0
   30.5820   76.5710   20.1900 C   0  0  0  0  0  0  0  0  0  0  0  0
   29.6950   72.1130   20.1080 O   0  0  0  0  0  0  0  0  0  0  0  0
   29.7760   72.1290   18.6710 C   0  0  2  0  0  0  0  0  0  0  0  0
   29.9770   70.7070   18.1620 C   0  0  0  0  0  0  0  0  0  0  0  0
   29.8320   70.4250   16.8040 C   0  0  0  0  0  0  0  0  0  0  0  0
   30.0150   69.1230   16.3380 C   0  0  0  0  0  0  0  0  0  0  0  0
   30.3440   68.1030   17.2310 C   0  0  0  0  0  0  0  0  0  0  0  0
   30.4890   68.3850   18.5890 C   0  0  0  0  0  0  0  0  0  0  0  0
   30.3060   69.6870   19.0550 C   0  0  0  0  0  0  0  0  0  0  0  0
   30.8010   73.0950   18.1750 C   0  0  0  0  0  0  0  0  0  0  0  0
   32.1350   72.9070   18.5310 C   0  0  0  0  0  0  0  0  0  0  0  0
   33.1120   73.7950   18.0800 C   0  0  0  0  0  0  0  0  0  0  0  0
   34.3980   73.5540   18.4640 O   0  0  0  0  0  0  0  0  0  0  0  0
   32.7520   74.8770   17.2680 C   0  0  0  0  0  0  0  0  0  0  0  0
   31.4160   75.0650   16.9110 C   0  0  0  0  0  0  0  0  0  0  0  0
   30.4390   74.1720   17.3650 C   0  0  0  0  0  0  0  0  0  0  0  0
   29.1190   74.3150   17.0440 O   0  0  0  0  0  0  0  0  0  0  0  0
   31.0220   76.2030   16.0550 C   0  0  0  0  0  0  0  0  0  0  0  0
   29.8580   76.3920   15.7260 O   0  0  0  0  0  0  0  0  0  0  0  0
   32.0630   77.1380   15.5820 C   0  0  0  0  0  0  0  0  0  0  0  0
   31.7040   78.2200   14.7690 C   0  0  0  0  0  0  0  0  0  0  0  0
   32.6810   79.1080   14.3180 C   0  0  0  0  0  0  0  0  0  0  0  0
   34.0140   78.9200   14.6740 C   0  0  0  0  0  0  0  0  0  0  0  0
   34.3780   77.8430   15.4820 C   0  0  0  0  0  0  0  0  0  0  0  0
   33.4000   76.9490   15.9380 C   0  0  0  0  0  0  0  0  0  0  0  0
   33.7940   75.8120   16.7940 C   0  0  0  0  0  0  0  0  0  0  0  0
   34.9720   75.6680   17.0930 O   0  0  0  0  0  0  0  0  0  0  0  0
   28.9427   74.0360   22.6199 H   0  0  0  0  0  0  0  0  0  0  0  0
   29.8973   72.4894   22.4879 H   0  0  0  0  0  0  0  0  0  0  0  0
   31.7424   73.7092   22.5302 H   0  0  0  0  0  0  0  0  0  0  0  0
   31.2345   74.3516   20.8930 H   0  0  0  0  0  0  0  0  0  0  0  0
   30.2142   75.6514   23.4027 H   0  0  0  0  0  0  0  0  0  0  0  0
   31.9000   75.9935   22.7632 H   0  0  0  0  0  0  0  0  0  0  0  0
   29.3671   77.8697   23.1038 H   0  0  0  0  0  0  0  0  0  0  0  0
   28.4637   79.5566   21.5028 H   0  0  0  0  0  0  0  0  0  0  0  0
   29.9050   78.7804   17.2599 H   0  0  0  0  0  0  0  0  0  0  0  0
   28.6384   80.0007   16.8417 H   0  0  0  0  0  0  0  0  0  0  0  0
   30.4123   81.3996   16.6651 H   0  0  0  0  0  0  0  0  0  0  0  0
   30.2475   81.4739   18.4664 H   0  0  0  0  0  0  0  0  0  0  0  0
   27.7355   80.6115   20.2965 H   0  0  0  0  0  0  0  0  0  0  0  0
   27.6828   81.2722   18.6149 H   0  0  0  0  0  0  0  0  0  0  0  0
   26.5367   78.5416   19.0588 H   0  0  0  0  0  0  0  0  0  0  0  0
   25.6238   79.9619   19.7152 H   0  0  0  0  0  0  0  0  0  0  0  0
   30.2773   77.4136   18.2181 H   0  0  0  0  0  0  0  0  0  0  0  0
   31.1810   75.7265   19.8186 H   0  0  0  0  0  0  0  0  0  0  0  0
   28.8266   72.4996   18.2572 H   0  0  0  0  0  0  0  0  0  0  0  0
   29.5732   71.2296   16.1000 H   0  0  0  0  0  0  0  0  0  0  0  0
   29.8999   68.9007   15.2669 H   0  0  0  0  0  0  0  0  0  0  0  0
   30.4890   67.0762   16.8640 H   0  0  0  0  0  0  0  0  0  0  0  0
   30.7478   67.5804   19.2930 H   0  0  0  0  0  0  0  0  0  0  0  0
   30.4211   69.9093   20.1261 H   0  0  0  0  0  0  0  0  0  0  0  0
   32.4183   72.0568   19.1689 H   0  0  0  0  0  0  0  0  0  0  0  0
   35.0850   74.2600   18.3640 H   0  0  0  0  0  0  0  0  0  0  0  0
   28.8300   74.2500   16.0990 H   0  0  0  0  0  0  0  0  0  0  0  0
   30.6517   78.3699   14.4859 H   0  0  0  0  0  0  0  0  0  0  0  0
   32.3978   79.9582   13.6800 H   0  0  0  0  0  0  0  0  0  0  0  0
   34.7816   79.6224   14.3172 H   0  0  0  0  0  0  0  0  0  0  0  0
   35.4317   77.6955   15.7610 H   0  0  0  0  0  0  0  0  0  0  0  0
  1  2  2  0
  2  3  1  0
  3  4  1  0
  4  5  1  0
  5  6  1  0
  6  7  1  0
  7  8  2  0
  8  9  1  0
  9 10  1  0
 10 11  1  0
 11 12  1  0
 12 13  1  0
 10 14  1  0
 14 15  1  0
 15 16  1  0
  9 17  2  0
 17 18  1  0
  2 19  1  0
 19 20  1  0
 20 21  1  0
 21 22  2  0
 22 23  1  0
 23 24  2  0
 24 25  1  0
 25 26  2  0
 20 27  1  0
 27 28  1  0
 28 29  2  0
 29 30  1  0
 29 31  1  0
 31 32  2  0
 32 33  1  0
 33 34  1  0
 32 35  1  0
 35 36  2  0
 35 37  1  0
 37 38  2  0
 38 39  1  0
 39 40  2  0
 40 41  1  0
 41 42  2  0
 42 43  1  0
 43 44  2  0
 18  6  2  0
 26 21  1  0
 33 27  2  0
 42 37  1  0
 43 31  1  0
  3 45  1  0
  3 46  1  0
  4 47  1  0
  4 48  1  0
  5 49  1  0
  5 50  1  0
  7 51  1  0
  8 52  1  0
 11 53  1  0
 11 54  1  0
 12 55  1  0
 12 56  1  0
 14 57  1  0
 14 58  1  0
 15 59  1  0
 15 60  1  0
 17 61  1  0
 18 62  1  0
 20 63  1  6
 22 64  1  0
 23 65  1  0
 24 66  1  0
 25 67  1  0
 26 68  1  0
 28 69  1  0
 30 70  1  0
 34 71  1  0
 38 72  1  0
 39 73  1  0
 40 74  1  0
 41 75  1  0
M  END
>  <meeko>  (3) 
{"is_sidechain": [false], "free_energy": -7.643, "intermolecular_energy": -13.88, "internal_energy": -4.567}

$$$$
SCHEMBL24279188_10054794_out
     RDKit          3D

 75 79  0  0  0  0  0  0  0  0999 V2000
   32.7490   77.4720   22.3660 O   0  0  0  0  0  0  0  0  0  0  0  0
   31.6020   77.5740   21.9550 C   0  0  0  0  0  0  0  0  0  0  0  0
   30.4000   76.9200   22.5980 C   0  0  0  0  0  0  0  0  0  0  0  0
   30.1750   75.4840   22.1200 C   0  0  0  0  0  0  0  0  0  0  0  0
   29.2270   75.3680   20.9180 C   0  0  0  0  0  0  0  0  0  0  0  0
   29.2670   74.0360   20.2140 C   0  0  0  0  0  0  0  0  0  0  0  0
   30.2970   73.1340   20.4840 C   0  0  0  0  0  0  0  0  0  0  0  0
   30.3340   71.9020   19.8330 C   0  0  0  0  0  0  0  0  0  0  0  0
   29.3410   71.5700   18.9110 C   0  0  0  0  0  0  0  0  0  0  0  0
   29.3790   70.3240   18.2520 N   0  0  0  0  0  0  0  0  0  0  0  0
   28.3760   69.9870   17.2610 C   0  0  0  0  0  0  0  0  0  0  0  0
   29.0170   69.3840   16.0210 C   0  0  0  0  0  0  0  0  0  0  0  0
   28.7640   70.4160   14.5910 Cl  0  0  0  0  0  0  0  0  0  0  0  0
   30.4120   69.3570   18.5680 C   0  0  0  0  0  0  0  0  0  0  0  0
   29.8790   68.2700   19.4880 C   0  0  0  0  0  0  0  0  0  0  0  0
   31.1600   67.1240   19.9540 Cl  0  0  0  0  0  0  0  0  0  0  0  0
   28.3110   72.4710   18.6400 C   0  0  0  0  0  0  0  0  0  0  0  0
   28.2750   73.7040   19.2920 C   0  0  0  0  0  0  0  0  0  0  0  0
   31.2020   78.2580   20.8470 O   0  0  0  0  0  0  0  0  0  0  0  0
   32.1090   78.1980   19.7310 C   0  0  2  0  0  0  0  0  0  0  0  0
   32.0400   79.5080   18.9550 C   0  0  0  0  0  0  0  0  0  0  0  0
   30.8020   80.0580   18.6240 C   0  0  0  0  0  0  0  0  0  0  0  0
   30.7390   81.2560   17.9130 C   0  0  0  0  0  0  0  0  0  0  0  0
   31.9140   81.9050   17.5340 C   0  0  0  0  0  0  0  0  0  0  0  0
   33.1520   81.3550   17.8650 C   0  0  0  0  0  0  0  0  0  0  0  0
   33.2160   80.1560   18.5760 C   0  0  0  0  0  0  0  0  0  0  0  0
   31.8860   76.9870   18.8870 C   0  0  0  0  0  0  0  0  0  0  0  0
   30.8050   76.9670   18.0070 C   0  0  0  0  0  0  0  0  0  0  0  0
   30.5740   75.8490   17.2070 C   0  0  0  0  0  0  0  0  0  0  0  0
   29.5010   75.8930   16.3660 O   0  0  0  0  0  0  0  0  0  0  0  0
   31.4290   74.7430   17.2870 C   0  0  0  0  0  0  0  0  0  0  0  0
   32.5100   74.7620   18.1690 C   0  0  0  0  0  0  0  0  0  0  0  0
   32.7390   75.8870   18.9700 C   0  0  0  0  0  0  0  0  0  0  0  0
   33.7830   75.9530   19.8480 O   0  0  0  0  0  0  0  0  0  0  0  0
   33.4200   73.6020   18.2650 C   0  0  0  0  0  0  0  0  0  0  0  0
   34.3770   73.5910   19.0280 O   0  0  0  0  0  0  0  0  0  0  0  0
   33.1680   72.4210   17.4140 C   0  0  0  0  0  0  0  0  0  0  0  0
   34.0230   71.3150   17.4940 C   0  0  0  0  0  0  0  0  0  0  0  0
   33.7920   70.1950   16.6940 C   0  0  0  0  0  0  0  0  0  0  0  0
   32.7130   70.1770   15.8140 C   0  0  0  0  0  0  0  0  0  0  0  0
   31.8590   71.2760   15.7290 C   0  0  0  0  0  0  0  0  0  0  0  0
   32.0860   72.4020   16.5310 C   0  0  0  0  0  0  0  0  0  0  0  0
   31.1770   73.5620   16.4350 C   0  0  0  0  0  0  0  0  0  0  0  0
   30.2350   73.5200   15.6540 O   0  0  0  0  0  0  0  0  0  0  0  0
   30.5485   76.9077   23.6879 H   0  0  0  0  0  0  0  0  0  0  0  0
   29.5138   77.5053   22.3115 H   0  0  0  0  0  0  0  0  0  0  0  0
   31.1482   75.0575   21.8355 H   0  0  0  0  0  0  0  0  0  0  0  0
   29.7022   74.9417   22.9521 H   0  0  0  0  0  0  0  0  0  0  0  0
   28.1999   75.5376   21.2734 H   0  0  0  0  0  0  0  0  0  0  0  0
   29.5592   76.1181   20.1852 H   0  0  0  0  0  0  0  0  0  0  0  0
   31.0801   73.3954   21.2109 H   0  0  0  0  0  0  0  0  0  0  0  0
   31.1462   71.1915   20.0462 H   0  0  0  0  0  0  0  0  0  0  0  0
   27.6736   69.2591   17.6931 H   0  0  0  0  0  0  0  0  0  0  0  0
   27.8472   70.9067   16.9704 H   0  0  0  0  0  0  0  0  0  0  0  0
   30.0974   69.2722   16.1950 H   0  0  0  0  0  0  0  0  0  0  0  0
   28.5492   68.4070   15.8299 H   0  0  0  0  0  0  0  0  0  0  0  0
   30.7698   68.8955   17.6358 H   0  0  0  0  0  0  0  0  0  0  0  0
   31.2340   69.8778   19.0809 H   0  0  0  0  0  0  0  0  0  0  0  0
   29.4708   68.7383   20.3957 H   0  0  0  0  0  0  0  0  0  0  0  0
   29.0976   67.7140   18.9492 H   0  0  0  0  0  0  0  0  0  0  0  0
   27.5280   72.2096   17.9130 H   0  0  0  0  0  0  0  0  0  0  0  0
   27.4632   74.4149   19.0785 H   0  0  0  0  0  0  0  0  0  0  0  0
   33.1377   78.0858   20.1041 H   0  0  0  0  0  0  0  0  0  0  0  0
   29.8752   79.5469   18.9237 H   0  0  0  0  0  0  0  0  0  0  0  0
   29.7624   81.6892   17.6510 H   0  0  0  0  0  0  0  0  0  0  0  0
   31.8641   82.8505   16.9741 H   0  0  0  0  0  0  0  0  0  0  0  0
   34.0786   81.8666   17.5655 H   0  0  0  0  0  0  0  0  0  0  0  0
   34.1925   79.7222   18.8374 H   0  0  0  0  0  0  0  0  0  0  0  0
   30.1328   77.8354   17.9437 H   0  0  0  0  0  0  0  0  0  0  0  0
   29.4510   76.5880   15.6630 H   0  0  0  0  0  0  0  0  0  0  0  0
   33.6180   76.1830   20.7970 H   0  0  0  0  0  0  0  0  0  0  0  0
   34.8768   71.3289   18.1874 H   0  0  0  0  0  0  0  0  0  0  0  0
   34.4629   69.3257   16.7587 H   0  0  0  0  0  0  0  0  0  0  0  0
   32.5338   69.2932   15.1840 H   0  0  0  0  0  0  0  0  0  0  0  0
   31.0076   71.2589   15.0327 H   0  0  0  0  0  0  0  0  0  0  0  0
  1  2  2  0
  2  3  1  0
  3  4  1  0
  4  5  1  0
  5  6  1  0
  6  7  1  0
  7  8  2  0
  8  9  1  0
  9 10  1  0
 10 11  1  0
 11 12  1  0
 12 13  1  0
 10 14  1  0
 14 15  1  0
 15 16  1  0
  9 17  2  0
 17 18  1  0
  2 19  1  0
 19 20  1  0
 20 21  1  0
 21 22  2  0
 22 23  1  0
 23 24  2  0
 24 25  1  0
 25 26  2  0
 20 27  1  0
 27 28  1  0
 28 29  2  0
 29 30  1  0
 29 31  1  0
 31 32  2  0
 32 33  1  0
 33 34  1  0
 32 35  1  0
 35 36  2  0
 35 37  1  0
 37 38  2  0
 38 39  1  0
 39 40  2  0
 40 41  1  0
 41 42  2  0
 42 43  1  0
 43 44  2  0
 18  6  2  0
 26 21  1  0
 33 27  2  0
 42 37  1  0
 43 31  1  0
  3 45  1  0
  3 46  1  0
  4 47  1  0
  4 48  1  0
  5 49  1  0
  5 50  1  0
  7 51  1  0
  8 52  1  0
 11 53  1  0
 11 54  1  0
 12 55  1  0
 12 56  1  0
 14 57  1  0
 14 58  1  0
 15 59  1  0
 15 60  1  0
 17 61  1  0
 18 62  1  0
 20 63  1  1
 22 64  1  0
 23 65  1  0
 24 66  1  0
 25 67  1  0
 26 68  1  0
 28 69  1  0
 30 70  1  0
 34 71  1  0
 38 72  1  0
 39 73  1  0
 40 74  1  0
 41 75  1  0
M  END
>  <meeko>  (4) 
{"is_sidechain": [false], "free_energy": -7.602, "intermolecular_energy": -13.386, "internal_energy": -4.987}

$$$$
SCHEMBL24279188_10054794_out
     RDKit          3D

 75 79  0  0  0  0  0  0  0  0999 V2000
   27.3700   69.3910   16.4540 O   0  0  0  0  0  0  0  0  0  0  0  0
   28.4930   69.7980   16.7250 C   0  0  0  0  0  0  0  0  0  0  0  0
   29.5980   69.9960   15.7120 C   0  0  0  0  0  0  0  0  0  0  0  0
   29.5460   71.3670   15.0340 C   0  0  0  0  0  0  0  0  0  0  0  0
   30.9200   72.0290   14.8600 C   0  0  0  0  0  0  0  0  0  0  0  0
   31.0620   73.3670   15.5380 C   0  0  0  0  0  0  0  0  0  0  0  0
   30.0650   73.8220   16.4010 C   0  0  0  0  0  0  0  0  0  0  0  0
   30.1960   75.0600   17.0290 C   0  0  0  0  0  0  0  0  0  0  0  0
   31.3250   75.8440   16.7940 C   0  0  0  0  0  0  0  0  0  0  0  0
   31.4570   77.0970   17.4290 N   0  0  0  0  0  0  0  0  0  0  0  0
   32.7670   77.6900   17.6170 C   0  0  0  0  0  0  0  0  0  0  0  0
   32.9310   78.9320   16.7560 C   0  0  0  0  0  0  0  0  0  0  0  0
   33.9990   78.6230   15.3650 Cl  0  0  0  0  0  0  0  0  0  0  0  0
   30.2870   77.8010   17.9150 C   0  0  0  0  0  0  0  0  0  0  0  0
   30.5020   78.3010   19.3350 C   0  0  0  0  0  0  0  0  0  0  0  0
   29.0060   78.9850   20.0190 Cl  0  0  0  0  0  0  0  0  0  0  0  0
   32.3230   75.3910   15.9310 C   0  0  0  0  0  0  0  0  0  0  0  0
   32.1910   74.1520   15.3030 C   0  0  0  0  0  0  0  0  0  0  0  0
   28.9570   70.1130   17.9650 O   0  0  0  0  0  0  0  0  0  0  0  0
   30.3680   69.9110   18.1600 C   0  0  2  0  0  0  0  0  0  0  0  0
   30.5860   68.6980   19.0550 C   0  0  0  0  0  0  0  0  0  0  0  0
   29.6030   68.3200   19.9700 C   0  0  0  0  0  0  0  0  0  0  0  0
   29.8030   67.2100   20.7900 C   0  0  0  0  0  0  0  0  0  0  0  0
   30.9850   66.4760   20.6940 C   0  0  0  0  0  0  0  0  0  0  0  0
   31.9680   66.8540   19.7790 C   0  0  0  0  0  0  0  0  0  0  0  0
   31.7690   67.9640   18.9590 C   0  0  0  0  0  0  0  0  0  0  0  0
   31.0520   71.1470   18.6450 C   0  0  0  0  0  0  0  0  0  0  0  0
   32.3190   71.4560   18.1530 C   0  0  0  0  0  0  0  0  0  0  0  0
   32.9790   72.6040   18.5890 C   0  0  0  0  0  0  0  0  0  0  0  0
   34.2150   72.8500   18.0680 O   0  0  0  0  0  0  0  0  0  0  0  0
   32.3690   73.4490   19.5250 C   0  0  0  0  0  0  0  0  0  0  0  0
   31.1000   73.1390   20.0190 C   0  0  0  0  0  0  0  0  0  0  0  0
   30.4410   71.9860   19.5770 C   0  0  0  0  0  0  0  0  0  0  0  0
   29.2010   71.6410   20.0310 O   0  0  0  0  0  0  0  0  0  0  0  0
   30.4450   74.0210   21.0060 C   0  0  0  0  0  0  0  0  0  0  0  0
   29.3330   73.7750   21.4550 O   0  0  0  0  0  0  0  0  0  0  0  0
   31.1510   75.2350   21.4630 C   0  0  0  0  0  0  0  0  0  0  0  0
   30.5410   76.0800   22.3990 C   0  0  0  0  0  0  0  0  0  0  0  0
   31.2010   77.2290   22.8350 C   0  0  0  0  0  0  0  0  0  0  0  0
   32.4660   77.5380   22.3420 C   0  0  0  0  0  0  0  0  0  0  0  0
   33.0780   76.7000   21.4100 C   0  0  0  0  0  0  0  0  0  0  0  0
   32.4200   75.5450   20.9680 C   0  0  0  0  0  0  0  0  0  0  0  0
   33.0750   74.6640   19.9810 C   0  0  0  0  0  0  0  0  0  0  0  0
   34.1880   74.9570   19.5630 O   0  0  0  0  0  0  0  0  0  0  0  0
   30.5661   69.8943   16.2243 H   0  0  0  0  0  0  0  0  0  0  0  0
   29.4675   69.2352   14.9284 H   0  0  0  0  0  0  0  0  0  0  0  0
   29.0926   71.2442   14.0394 H   0  0  0  0  0  0  0  0  0  0  0  0
   28.9562   72.0245   15.6896 H   0  0  0  0  0  0  0  0  0  0  0  0
   31.6819   71.3521   15.2739 H   0  0  0  0  0  0  0  0  0  0  0  0
   31.0441   72.2109   13.7823 H   0  0  0  0  0  0  0  0  0  0  0  0
   29.1745   73.2035   16.5863 H   0  0  0  0  0  0  0  0  0  0  0  0
   29.4093   75.4180   17.7094 H   0  0  0  0  0  0  0  0  0  0  0  0
   32.8882   77.9669   18.6747 H   0  0  0  0  0  0  0  0  0  0  0  0
   33.5302   76.9551   17.3213 H   0  0  0  0  0  0  0  0  0  0  0  0
   31.9431   79.2439   16.3862 H   0  0  0  0  0  0  0  0  0  0  0  0
   33.3851   79.7223   17.3718 H   0  0  0  0  0  0  0  0  0  0  0  0
   30.0854   78.6599   17.2580 H   0  0  0  0  0  0  0  0  0  0  0  0
   29.4344   77.1060   17.9137 H   0  0  0  0  0  0  0  0  0  0  0  0
   30.8312   77.4607   19.9640 H   0  0  0  0  0  0  0  0  0  0  0  0
   31.2645   79.0935   19.3104 H   0  0  0  0  0  0  0  0  0  0  0  0
   33.2132   76.0100   15.7457 H   0  0  0  0  0  0  0  0  0  0  0  0
   32.9775   73.7941   14.6223 H   0  0  0  0  0  0  0  0  0  0  0  0
   30.8418   69.6969   17.1906 H   0  0  0  0  0  0  0  0  0  0  0  0
   28.6699   68.8977   20.0446 H   0  0  0  0  0  0  0  0  0  0  0  0
   29.0285   66.9133   21.5126 H   0  0  0  0  0  0  0  0  0  0  0  0
   31.1422   65.5993   21.3395 H   0  0  0  0  0  0  0  0  0  0  0  0
   32.9008   66.2758   19.7044 H   0  0  0  0  0  0  0  0  0  0  0  0
   32.5439   68.2609   18.2370 H   0  0  0  0  0  0  0  0  0  0  0  0
   32.7993   70.7924   17.4189 H   0  0  0  0  0  0  0  0  0  0  0  0
   34.6700   73.7080   18.2560 H   0  0  0  0  0  0  0  0  0  0  0  0
   28.6340   72.3150   20.4850 H   0  0  0  0  0  0  0  0  0  0  0  0
   29.5419   75.8376   22.7901 H   0  0  0  0  0  0  0  0  0  0  0  0
   30.7211   77.8922   23.5697 H   0  0  0  0  0  0  0  0  0  0  0  0
   32.9837   78.4447   22.6882 H   0  0  0  0  0  0  0  0  0  0  0  0
   34.0775   76.9461   21.0220 H   0  0  0  0  0  0  0  0  0  0  0  0
  1  2  2  0
  2  3  1  0
  3  4  1  0
  4  5  1  0
  5  6  1  0
  6  7  1  0
  7  8  2  0
  8  9  1  0
  9 10  1  0
 10 11  1  0
 11 12  1  0
 12 13  1  0
 10 14  1  0
 14 15  1  0
 15 16  1  0
  9 17  2  0
 17 18  1  0
  2 19  1  0
 19 20  1  0
 20 21  1  0
 21 22  2  0
 22 23  1  0
 23 24  2  0
 24 25  1  0
 25 26  2  0
 20 27  1  0
 27 28  1  0
 28 29  2  0
 29 30  1  0
 29 31  1  0
 31 32  2  0
 32 33  1  0
 33 34  1  0
 32 35  1  0
 35 36  2  0
 35 37  1  0
 37 38  2  0
 38 39  1  0
 39 40  2  0
 40 41  1  0
 41 42  2  0
 42 43  1  0
 43 44  2  0
 18  6  2  0
 26 21  1  0
 33 27  2  0
 42 37  1  0
 43 31  1  0
  3 45  1  0
  3 46  1  0
  4 47  1  0
  4 48  1  0
  5 49  1  0
  5 50  1  0
  7 51  1  0
  8 52  1  0
 11 53  1  0
 11 54  1  0
 12 55  1  0
 12 56  1  0
 14 57  1  0
 14 58  1  0
 15 59  1  0
 15 60  1  0
 17 61  1  0
 18 62  1  0
 20 63  1  6
 22 64  1  0
 23 65  1  0
 24 66  1  0
 25 67  1  0
 26 68  1  0
 28 69  1  0
 30 70  1  0
 34 71  1  0
 38 72  1  0
 39 73  1  0
 40 74  1  0
 41 75  1  0
M  END
>  <meeko>  (5) 
{"is_sidechain": [false], "free_energy": -7.555, "intermolecular_energy": -13.421, "internal_energy": -4.867}

$$$$
SCHEMBL24279188_10054794_out
     RDKit          3D

 75 79  0  0  0  0  0  0  0  0999 V2000
   30.8050   75.2750   22.7760 O   0  0  0  0  0  0  0  0  0  0  0  0
   31.9090   75.2050   22.2530 C   0  0  0  0  0  0  0  0  0  0  0  0
   33.1290   75.9640   22.7240 C   0  0  0  0  0  0  0  0  0  0  0  0
   33.0860   77.4490   22.3570 C   0  0  0  0  0  0  0  0  0  0  0  0
   33.5100   77.7470   20.9120 C   0  0  0  0  0  0  0  0  0  0  0  0
   32.4630   78.4450   20.0820 C   0  0  0  0  0  0  0  0  0  0  0  0
   31.1460   78.5160   20.5360 C   0  0  0  0  0  0  0  0  0  0  0  0
   30.1770   79.1620   19.7690 C   0  0  0  0  0  0  0  0  0  0  0  0
   30.5260   79.7370   18.5470 C   0  0  0  0  0  0  0  0  0  0  0  0
   29.5450   80.3900   17.7700 N   0  0  0  0  0  0  0  0  0  0  0  0
   28.3830   80.9820   18.4030 C   0  0  0  0  0  0  0  0  0  0  0  0
   27.0980   80.3960   17.8390 C   0  0  0  0  0  0  0  0  0  0  0  0
   26.1340   79.6020   19.1090 Cl  0  0  0  0  0  0  0  0  0  0  0  0
   29.6800   80.4630   16.3290 C   0  0  0  0  0  0  0  0  0  0  0  0
   30.3740   81.7490   15.9100 C   0  0  0  0  0  0  0  0  0  0  0  0
   31.6520   81.4390   14.7090 Cl  0  0  0  0  0  0  0  0  0  0  0  0
   31.8420   79.6670   18.0920 C   0  0  0  0  0  0  0  0  0  0  0  0
   32.8110   79.0200   18.8600 C   0  0  0  0  0  0  0  0  0  0  0  0
   32.2330   74.4680   21.1550 O   0  0  0  0  0  0  0  0  0  0  0  0
   31.2610   74.4910   20.0940 C   0  0  2  0  0  0  0  0  0  0  0  0
   30.6480   73.1040   19.9420 C   0  0  0  0  0  0  0  0  0  0  0  0
   29.5490   72.7370   20.7180 C   0  0  0  0  0  0  0  0  0  0  0  0
   28.9890   71.4680   20.5790 C   0  0  0  0  0  0  0  0  0  0  0  0
   29.5280   70.5650   19.6620 C   0  0  0  0  0  0  0  0  0  0  0  0
   30.6260   70.9310   18.8860 C   0  0  0  0  0  0  0  0  0  0  0  0
   31.1870   72.2010   19.0250 C   0  0  0  0  0  0  0  0  0  0  0  0
   31.8230   75.0430   18.8260 C   0  0  0  0  0  0  0  0  0  0  0  0
   33.1840   74.8890   18.5680 C   0  0  0  0  0  0  0  0  0  0  0  0
   33.7350   75.3940   17.3900 C   0  0  0  0  0  0  0  0  0  0  0  0
   35.0730   75.2090   17.1970 O   0  0  0  0  0  0  0  0  0  0  0  0
   32.9200   76.0570   16.4650 C   0  0  0  0  0  0  0  0  0  0  0  0
   31.5570   76.2110   16.7230 C   0  0  0  0  0  0  0  0  0  0  0  0
   31.0080   75.7030   17.9060 C   0  0  0  0  0  0  0  0  0  0  0  0
   29.6820   75.8290   18.2040 O   0  0  0  0  0  0  0  0  0  0  0  0
   30.6850   76.9090   15.7560 C   0  0  0  0  0  0  0  0  0  0  0  0
   29.4870   77.0580   15.9560 O   0  0  0  0  0  0  0  0  0  0  0  0
   31.2770   77.4410   14.5110 C   0  0  0  0  0  0  0  0  0  0  0  0
   30.4620   78.1040   13.5860 C   0  0  0  0  0  0  0  0  0  0  0  0
   31.0120   78.6090   12.4080 C   0  0  0  0  0  0  0  0  0  0  0  0
   32.3720   78.4540   12.1500 C   0  0  0  0  0  0  0  0  0  0  0  0
   33.1890   77.7940   13.0680 C   0  0  0  0  0  0  0  0  0  0  0  0
   32.6400   77.2850   14.2530 C   0  0  0  0  0  0  0  0  0  0  0  0
   33.5120   76.5880   15.2190 C   0  0  0  0  0  0  0  0  0  0  0  0
   34.7040   76.4660   14.9700 O   0  0  0  0  0  0  0  0  0  0  0  0
   33.1968   75.8749   23.8183 H   0  0  0  0  0  0  0  0  0  0  0  0
   34.0042   75.5256   22.2221 H   0  0  0  0  0  0  0  0  0  0  0  0
   32.0565   77.8103   22.4970 H   0  0  0  0  0  0  0  0  0  0  0  0
   33.8068   77.9600   23.0122 H   0  0  0  0  0  0  0  0  0  0  0  0
   34.4056   78.3850   20.9419 H   0  0  0  0  0  0  0  0  0  0  0  0
   33.6896   76.7733   20.4327 H   0  0  0  0  0  0  0  0  0  0  0  0
   30.8716   78.0621   21.4997 H   0  0  0  0  0  0  0  0  0  0  0  0
   29.1385   79.2181   20.1273 H   0  0  0  0  0  0  0  0  0  0  0  0
   28.4235   80.7860   19.4846 H   0  0  0  0  0  0  0  0  0  0  0  0
   28.3903   82.0644   18.2072 H   0  0  0  0  0  0  0  0  0  0  0  0
   26.5024   81.2048   17.3905 H   0  0  0  0  0  0  0  0  0  0  0  0
   27.3636   79.6420   17.0834 H   0  0  0  0  0  0  0  0  0  0  0  0
   30.2723   79.6045   15.9795 H   0  0  0  0  0  0  0  0  0  0  0  0
   28.6750   80.4461   15.8821 H   0  0  0  0  0  0  0  0  0  0  0  0
   29.6298   82.4306   15.4723 H   0  0  0  0  0  0  0  0  0  0  0  0
   30.8386   82.1967   16.8009 H   0  0  0  0  0  0  0  0  0  0  0  0
   32.1162   80.1214   17.1285 H   0  0  0  0  0  0  0  0  0  0  0  0
   33.8494   78.9635   18.5015 H   0  0  0  0  0  0  0  0  0  0  0  0
   30.4500   75.1854   20.3585 H   0  0  0  0  0  0  0  0  0  0  0  0
   29.1237   73.4493   21.4403 H   0  0  0  0  0  0  0  0  0  0  0  0
   28.1226   71.1787   21.1919 H   0  0  0  0  0  0  0  0  0  0  0  0
   29.0860   69.5638   19.5516 H   0  0  0  0  0  0  0  0  0  0  0  0
   31.0507   70.2184   18.1636 H   0  0  0  0  0  0  0  0  0  0  0  0
   32.0535   72.4901   18.4121 H   0  0  0  0  0  0  0  0  0  0  0  0
   33.8250   74.3683   19.2946 H   0  0  0  0  0  0  0  0  0  0  0  0
   35.6540   74.9650   17.9600 H   0  0  0  0  0  0  0  0  0  0  0  0
   29.3760   76.5570   18.8020 H   0  0  0  0  0  0  0  0  0  0  0  0
   29.3877   78.2267   13.7882 H   0  0  0  0  0  0  0  0  0  0  0  0
   30.3710   79.1303   11.6818 H   0  0  0  0  0  0  0  0  0  0  0  0
   32.8029   78.8531   11.2199 H   0  0  0  0  0  0  0  0  0  0  0  0
   34.2628   77.6731   12.8622 H   0  0  0  0  0  0  0  0  0  0  0  0
  1  2  2  0
  2  3  1  0
  3  4  1  0
  4  5  1  0
  5  6  1  0
  6  7  1  0
  7  8  2  0
  8  9  1  0
  9 10  1  0
 10 11  1  0
 11 12  1  0
 12 13  1  0
 10 14  1  0
 14 15  1  0
 15 16  1  0
  9 17  2  0
 17 18  1  0
  2 19  1  0
 19 20  1  0
 20 21  1  0
 21 22  2  0
 22 23  1  0
 23 24  2  0
 24 25  1  0
 25 26  2  0
 20 27  1  0
 27 28  1  0
 28 29  2  0
 29 30  1  0
 29 31  1  0
 31 32  2  0
 32 33  1  0
 33 34  1  0
 32 35  1  0
 35 36  2  0
 35 37  1  0
 37 38  2  0
 38 39  1  0
 39 40  2  0
 40 41  1  0
 41 42  2  0
 42 43  1  0
 43 44  2  0
 18  6  2  0
 26 21  1  0
 33 27  2  0
 42 37  1  0
 43 31  1  0
  3 45  1  0
  3 46  1  0
  4 47  1  0
  4 48  1  0
  5 49  1  0
  5 50  1  0
  7 51  1  0
  8 52  1  0
 11 53  1  0
 11 54  1  0
 12 55  1  0
 12 56  1  0
 14 57  1  0
 14 58  1  0
 15 59  1  0
 15 60  1  0
 17 61  1  0
 18 62  1  0
 20 63  1  1
 22 64  1  0
 23 65  1  0
 24 66  1  0
 25 67  1  0
 26 68  1  0
 28 69  1  0
 30 70  1  0
 34 71  1  0
 38 72  1  0
 39 73  1  0
 40 74  1  0
 41 75  1  0
M  END
>  <meeko>  (6) 
{"is_sidechain": [false], "free_energy": -7.516, "intermolecular_energy": -13.394, "internal_energy": -4.822}

$$$$
SCHEMBL24279188_10054794_out
     RDKit          3D

 75 79  0  0  0  0  0  0  0  0999 V2000
   29.5530   78.1440   12.2180 O   0  0  0  0  0  0  0  0  0  0  0  0
   30.7440   78.4200   12.2670 C   0  0  0  0  0  0  0  0  0  0  0  0
   31.8600   77.4000   12.2610 C   0  0  0  0  0  0  0  0  0  0  0  0
   31.8110   76.4540   13.4630 C   0  0  0  0  0  0  0  0  0  0  0  0
   32.5790   76.9650   14.6900 C   0  0  0  0  0  0  0  0  0  0  0  0
   32.0470   76.4740   16.0120 C   0  0  0  0  0  0  0  0  0  0  0  0
   30.7090   76.0970   16.1300 C   0  0  0  0  0  0  0  0  0  0  0  0
   30.2170   75.6420   17.3530 C   0  0  0  0  0  0  0  0  0  0  0  0
   31.0630   75.5650   18.4590 C   0  0  0  0  0  0  0  0  0  0  0  0
   30.5640   75.1060   19.6960 N   0  0  0  0  0  0  0  0  0  0  0  0
   31.4120   74.3450   20.5920 C   0  0  0  0  0  0  0  0  0  0  0  0
   31.4600   74.9820   21.9710 C   0  0  0  0  0  0  0  0  0  0  0  0
   33.1130   75.4950   22.3930 Cl  0  0  0  0  0  0  0  0  0  0  0  0
   29.1930   75.3770   20.0810 C   0  0  0  0  0  0  0  0  0  0  0  0
   28.4170   74.0840   20.2780 C   0  0  0  0  0  0  0  0  0  0  0  0
   27.9840   73.3390   18.7190 Cl  0  0  0  0  0  0  0  0  0  0  0  0
   32.4000   75.9420   18.3430 C   0  0  0  0  0  0  0  0  0  0  0  0
   32.8920   76.3970   17.1190 C   0  0  0  0  0  0  0  0  0  0  0  0
   31.2770   79.6690   12.3630 O   0  0  0  0  0  0  0  0  0  0  0  0
   30.6520   80.5270   13.3350 C   0  0  2  0  0  0  0  0  0  0  0  0
   30.6780   81.9640   12.8300 C   0  0  0  0  0  0  0  0  0  0  0  0
   30.3400   83.0120   13.6870 C   0  0  0  0  0  0  0  0  0  0  0  0
   30.3630   84.3270   13.2250 C   0  0  0  0  0  0  0  0  0  0  0  0
   30.7240   84.5950   11.9050 C   0  0  0  0  0  0  0  0  0  0  0  0
   31.0620   83.5490   11.0470 C   0  0  0  0  0  0  0  0  0  0  0  0
   31.0390   82.2320   11.5100 C   0  0  0  0  0  0  0  0  0  0  0  0
   31.2420   80.3580   14.6970 C   0  0  0  0  0  0  0  0  0  0  0  0
   32.5940   80.6380   14.8860 C   0  0  0  0  0  0  0  0  0  0  0  0
   33.1700   80.4900   16.1480 C   0  0  0  0  0  0  0  0  0  0  0  0
   34.4970   80.7810   16.2670 O   0  0  0  0  0  0  0  0  0  0  0  0
   32.3880   80.0580   17.2270 C   0  0  0  0  0  0  0  0  0  0  0  0
   31.0350   79.7770   17.0370 C   0  0  0  0  0  0  0  0  0  0  0  0
   30.4610   79.9280   15.7700 C   0  0  0  0  0  0  0  0  0  0  0  0
   29.1420   79.6660   15.5340 O   0  0  0  0  0  0  0  0  0  0  0  0
   30.1980   79.3210   18.1660 C   0  0  0  0  0  0  0  0  0  0  0  0
   29.0080   79.0690   18.0290 O   0  0  0  0  0  0  0  0  0  0  0  0
   30.8160   79.1660   19.4990 C   0  0  0  0  0  0  0  0  0  0  0  0
   30.0350   78.7350   20.5780 C   0  0  0  0  0  0  0  0  0  0  0  0
   30.6100   78.5860   21.8410 C   0  0  0  0  0  0  0  0  0  0  0  0
   31.9610   78.8670   22.0290 C   0  0  0  0  0  0  0  0  0  0  0  0
   32.7440   79.2980   20.9580 C   0  0  0  0  0  0  0  0  0  0  0  0
   32.1710   79.4480   19.6890 C   0  0  0  0  0  0  0  0  0  0  0  0
   33.0070   79.9050   18.5610 C   0  0  0  0  0  0  0  0  0  0  0  0
   34.1920   80.1440   18.7530 O   0  0  0  0  0  0  0  0  0  0  0  0
   31.7836   76.8021   11.3409 H   0  0  0  0  0  0  0  0  0  0  0  0
   32.8104   77.9513   12.3143 H   0  0  0  0  0  0  0  0  0  0  0  0
   30.7583   76.3112   13.7484 H   0  0  0  0  0  0  0  0  0  0  0  0
   32.2956   75.5170   13.1511 H   0  0  0  0  0  0  0  0  0  0  0  0
   33.6260   76.6400   14.5994 H   0  0  0  0  0  0  0  0  0  0  0  0
   32.4660   78.0592   14.6953 H   0  0  0  0  0  0  0  0  0  0  0  0
   30.0416   76.1587   15.2578 H   0  0  0  0  0  0  0  0  0  0  0  0
   29.1622   75.3440   17.4453 H   0  0  0  0  0  0  0  0  0  0  0  0
   31.0147   73.3232   20.6817 H   0  0  0  0  0  0  0  0  0  0  0  0
   32.4313   74.3280   20.1788 H   0  0  0  0  0  0  0  0  0  0  0  0
   30.7986   75.8609   21.9824 H   0  0  0  0  0  0  0  0  0  0  0  0
   31.1302   74.2357   22.7087 H   0  0  0  0  0  0  0  0  0  0  0  0
   29.1894   75.9458   21.0225 H   0  0  0  0  0  0  0  0  0  0  0  0
   28.7116   75.9562   19.2793 H   0  0  0  0  0  0  0  0  0  0  0  0
   29.0368   73.3789   20.8513 H   0  0  0  0  0  0  0  0  0  0  0  0
   27.4881   74.3178   20.8188 H   0  0  0  0  0  0  0  0  0  0  0  0
   33.0668   75.8809   19.2157 H   0  0  0  0  0  0  0  0  0  0  0  0
   33.9468   76.6951   17.0271 H   0  0  0  0  0  0  0  0  0  0  0  0
   29.5980   80.2355   13.4535 H   0  0  0  0  0  0  0  0  0  0  0  0
   30.0551   82.8003   14.7282 H   0  0  0  0  0  0  0  0  0  0  0  0
   30.0966   85.1527   13.9012 H   0  0  0  0  0  0  0  0  0  0  0  0
   30.7422   85.6326   11.5402 H   0  0  0  0  0  0  0  0  0  0  0  0
   31.3466   83.7614   10.0059 H   0  0  0  0  0  0  0  0  0  0  0  0
   31.3055   81.4063   10.8339 H   0  0  0  0  0  0  0  0  0  0  0  0
   33.2082   80.9764   14.0385 H   0  0  0  0  0  0  0  0  0  0  0  0
   35.1320   80.0840   16.5690 H   0  0  0  0  0  0  0  0  0  0  0  0
   28.8470   78.7380   15.3480 H   0  0  0  0  0  0  0  0  0  0  0  0
   28.9677   78.5137   20.4303 H   0  0  0  0  0  0  0  0  0  0  0  0
   29.9959   78.2465   22.6881 H   0  0  0  0  0  0  0  0  0  0  0  0
   32.4121   78.7487   23.0252 H   0  0  0  0  0  0  0  0  0  0  0  0
   33.8106   79.5199   21.1101 H   0  0  0  0  0  0  0  0  0  0  0  0
  1  2  2  0
  2  3  1  0
  3  4  1  0
  4  5  1  0
  5  6  1  0
  6  7  1  0
  7  8  2  0
  8  9  1  0
  9 10  1  0
 10 11  1  0
 11 12  1  0
 12 13  1  0
 10 14  1  0
 14 15  1  0
 15 16  1  0
  9 17  2  0
 17 18  1  0
  2 19  1  0
 19 20  1  0
 20 21  1  0
 21 22  2  0
 22 23  1  0
 23 24  2  0
 24 25  1  0
 25 26  2  0
 20 27  1  0
 27 28  1  0
 28 29  2  0
 29 30  1  0
 29 31  1  0
 31 32  2  0
 32 33  1  0
 33 34  1  0
 32 35  1  0
 35 36  2  0
 35 37  1  0
 37 38  2  0
 38 39  1  0
 39 40  2  0
 40 41  1  0
 41 42  2  0
 42 43  1  0
 43 44  2  0
 18  6  2  0
 26 21  1  0
 33 27  2  0
 42 37  1  0
 43 31  1  0
  3 45  1  0
  3 46  1  0
  4 47  1  0
  4 48  1  0
  5 49  1  0
  5 50  1  0
  7 51  1  0
  8 52  1  0
 11 53  1  0
 11 54  1  0
 12 55  1  0
 12 56  1  0
 14 57  1  0
 14 58  1  0
 15 59  1  0
 15 60  1  0
 17 61  1  0
 18 62  1  0
 20 63  1  1
 22 64  1  0
 23 65  1  0
 24 66  1  0
 25 67  1  0
 26 68  1  0
 28 69  1  0
 30 70  1  0
 34 71  1  0
 38 72  1  0
 39 73  1  0
 40 74  1  0
 41 75  1  0
M  END
>  <meeko>  (7) 
{"is_sidechain": [false], "free_energy": -7.495, "intermolecular_energy": -12.837, "internal_energy": -5.341}

$$$$
SCHEMBL24279188_10054794_out
     RDKit          3D

 75 79  0  0  0  0  0  0  0  0999 V2000
   34.7580   71.1470   14.9000 O   0  0  0  0  0  0  0  0  0  0  0  0
   33.9510   72.0370   14.6710 C   0  0  0  0  0  0  0  0  0  0  0  0
   34.3160   73.4150   14.1660 C   0  0  0  0  0  0  0  0  0  0  0  0
   33.9910   74.5240   15.1690 C   0  0  0  0  0  0  0  0  0  0  0  0
   32.5890   75.1250   15.0010 C   0  0  0  0  0  0  0  0  0  0  0  0
   32.2230   76.1610   16.0340 C   0  0  0  0  0  0  0  0  0  0  0  0
   33.1940   76.6430   16.9130 C   0  0  0  0  0  0  0  0  0  0  0  0
   32.8560   77.6010   17.8680 C   0  0  0  0  0  0  0  0  0  0  0  0
   31.5470   78.0770   17.9450 C   0  0  0  0  0  0  0  0  0  0  0  0
   31.2050   79.0450   18.9120 N   0  0  0  0  0  0  0  0  0  0  0  0
   32.1110   79.3440   20.0030 C   0  0  0  0  0  0  0  0  0  0  0  0
   33.0120   80.5180   19.6570 C   0  0  0  0  0  0  0  0  0  0  0  0
   34.7330   80.0700   19.7590 Cl  0  0  0  0  0  0  0  0  0  0  0  0
   29.9360   79.7430   18.8360 C   0  0  0  0  0  0  0  0  0  0  0  0
   29.0660   79.4230   20.0410 C   0  0  0  0  0  0  0  0  0  0  0  0
   27.3570   79.8200   19.7340 Cl  0  0  0  0  0  0  0  0  0  0  0  0
   30.5760   77.5950   17.0670 C   0  0  0  0  0  0  0  0  0  0  0  0
   30.9150   76.6370   16.1120 C   0  0  0  0  0  0  0  0  0  0  0  0
   32.6030   71.9670   14.8520 O   0  0  0  0  0  0  0  0  0  0  0  0
   32.1820   71.3250   16.0690 C   0  0  2  0  0  0  0  0  0  0  0  0
   31.2760   70.1480   15.7320 C   0  0  0  0  0  0  0  0  0  0  0  0
   30.6850   70.0610   14.4710 C   0  0  0  0  0  0  0  0  0  0  0  0
   29.8560   68.9840   14.1620 C   0  0  0  0  0  0  0  0  0  0  0  0
   29.6180   67.9920   15.1130 C   0  0  0  0  0  0  0  0  0  0  0  0
   30.2080   68.0780   16.3730 C   0  0  0  0  0  0  0  0  0  0  0  0
   31.0380   69.1560   16.6830 C   0  0  0  0  0  0  0  0  0  0  0  0
   31.5770   72.2910   17.0350 C   0  0  0  0  0  0  0  0  0  0  0  0
   30.2110   72.5530   16.9610 C   0  0  0  0  0  0  0  0  0  0  0  0
   29.6210   73.4500   17.8510 C   0  0  0  0  0  0  0  0  0  0  0  0
   28.2790   73.6620   17.7270 O   0  0  0  0  0  0  0  0  0  0  0  0
   30.4020   74.0890   18.8210 C   0  0  0  0  0  0  0  0  0  0  0  0
   31.7710   73.8270   18.8950 C   0  0  0  0  0  0  0  0  0  0  0  0
   32.3590   72.9260   18.0000 C   0  0  0  0  0  0  0  0  0  0  0  0
   33.6930   72.6370   18.0320 O   0  0  0  0  0  0  0  0  0  0  0  0
   32.6080   74.4940   19.9130 C   0  0  0  0  0  0  0  0  0  0  0  0
   33.8110   74.2820   20.0020 O   0  0  0  0  0  0  0  0  0  0  0  0
   31.9750   75.4430   20.8520 C   0  0  0  0  0  0  0  0  0  0  0  0
   32.7570   76.0820   21.8220 C   0  0  0  0  0  0  0  0  0  0  0  0
   32.1670   76.9790   22.7130 C   0  0  0  0  0  0  0  0  0  0  0  0
   30.8010   77.2400   22.6390 C   0  0  0  0  0  0  0  0  0  0  0  0
   30.0180   76.6060   21.6750 C   0  0  0  0  0  0  0  0  0  0  0  0
   30.6060   75.7040   20.7790 C   0  0  0  0  0  0  0  0  0  0  0  0
   29.7690   75.0370   19.7610 C   0  0  0  0  0  0  0  0  0  0  0  0
   28.5710   75.2840   19.7170 O   0  0  0  0  0  0  0  0  0  0  0  0
   35.3956   73.4371   13.9564 H   0  0  0  0  0  0  0  0  0  0  0  0
   33.7186   73.6033   13.2617 H   0  0  0  0  0  0  0  0  0  0  0  0
   34.0693   74.1067   16.1838 H   0  0  0  0  0  0  0  0  0  0  0  0
   34.7099   75.3370   14.9892 H   0  0  0  0  0  0  0  0  0  0  0  0
   32.5340   75.5957   14.0083 H   0  0  0  0  0  0  0  0  0  0  0  0
   31.8770   74.2957   15.1248 H   0  0  0  0  0  0  0  0  0  0  0  0
   34.2260   76.2671   16.8524 H   0  0  0  0  0  0  0  0  0  0  0  0
   33.6213   77.9813   18.5605 H   0  0  0  0  0  0  0  0  0  0  0  0
   31.5244   79.5928   20.8997 H   0  0  0  0  0  0  0  0  0  0  0  0
   32.7410   78.4613   20.1871 H   0  0  0  0  0  0  0  0  0  0  0  0
   32.7890   80.8503   18.6324 H   0  0  0  0  0  0  0  0  0  0  0  0
   32.8213   81.3250   20.3798 H   0  0  0  0  0  0  0  0  0  0  0  0
   30.1226   80.8266   18.8045 H   0  0  0  0  0  0  0  0  0  0  0  0
   29.4099   79.4163   17.9269 H   0  0  0  0  0  0  0  0  0  0  0  0
   29.1489   78.3497   20.2671 H   0  0  0  0  0  0  0  0  0  0  0  0
   29.4147   80.0293   20.8900 H   0  0  0  0  0  0  0  0  0  0  0  0
   29.5438   77.9703   17.1279 H   0  0  0  0  0  0  0  0  0  0  0  0
   30.1496   76.2566   15.4196 H   0  0  0  0  0  0  0  0  0  0  0  0
   33.0632   70.9263   16.5930 H   0  0  0  0  0  0  0  0  0  0  0  0
   30.8734   70.8427   13.7204 H   0  0  0  0  0  0  0  0  0  0  0  0
   29.3895   68.9164   13.1681 H   0  0  0  0  0  0  0  0  0  0  0  0
   28.9645   67.1415   14.8687 H   0  0  0  0  0  0  0  0  0  0  0  0
   30.0192   67.2959   17.1231 H   0  0  0  0  0  0  0  0  0  0  0  0
   31.5044   69.2234   17.6770 H   0  0  0  0  0  0  0  0  0  0  0  0
   29.5964   72.0514   16.1990 H   0  0  0  0  0  0  0  0  0  0  0  0
   27.9360   74.2590   17.0160 H   0  0  0  0  0  0  0  0  0  0  0  0
   34.3300   73.2810   18.4340 H   0  0  0  0  0  0  0  0  0  0  0  0
   33.8361   75.8768   21.8815 H   0  0  0  0  0  0  0  0  0  0  0  0
   32.7816   77.4807   23.4749 H   0  0  0  0  0  0  0  0  0  0  0  0
   30.3387   77.9479   23.3426 H   0  0  0  0  0  0  0  0  0  0  0  0
   28.9393   76.8140   21.6182 H   0  0  0  0  0  0  0  0  0  0  0  0
  1  2  2  0
  2  3  1  0
  3  4  1  0
  4  5  1  0
  5  6  1  0
  6  7  1  0
  7  8  2  0
  8  9  1  0
  9 10  1  0
 10 11  1  0
 11 12  1  0
 12 13  1  0
 10 14  1  0
 14 15  1  0
 15 16  1  0
  9 17  2  0
 17 18  1  0
  2 19  1  0
 19 20  1  0
 20 21  1  0
 21 22  2  0
 22 23  1  0
 23 24  2  0
 24 25  1  0
 25 26  2  0
 20 27  1  0
 27 28  1  0
 28 29  2  0
 29 30  1  0
 29 31  1  0
 31 32  2  0
 32 33  1  0
 33 34  1  0
 32 35  1  0
 35 36  2  0
 35 37  1  0
 37 38  2  0
 38 39  1  0
 39 40  2  0
 40 41  1  0
 41 42  2  0
 42 43  1  0
 43 44  2  0
 18  6  2  0
 26 21  1  0
 33 27  2  0
 42 37  1  0
 43 31  1  0
  3 45  1  0
  3 46  1  0
  4 47  1  0
  4 48  1  0
  5 49  1  0
  5 50  1  0
  7 51  1  0
  8 52  1  0
 11 53  1  0
 11 54  1  0
 12 55  1  0
 12 56  1  0
 14 57  1  0
 14 58  1  0
 15 59  1  0
 15 60  1  0
 17 61  1  0
 18 62  1  0
 20 63  1  1
 22 64  1  0
 23 65  1  0
 24 66  1  0
 25 67  1  0
 26 68  1  0
 28 69  1  0
 30 70  1  0
 34 71  1  0
 38 72  1  0
 39 73  1  0
 40 74  1  0
 41 75  1  0
M  END
>  <meeko>  (8) 
{"is_sidechain": [false], "free_energy": -7.421, "intermolecular_energy": -13.291, "internal_energy": -4.752}

$$$$
SCHEMBL24279188_10054794_out
     RDKit          3D

 75 79  0  0  0  0  0  0  0  0999 V2000
   34.3080   72.4260   14.5850 O   0  0  0  0  0  0  0  0  0  0  0  0
   33.2060   72.9570   14.6130 C   0  0  0  0  0  0  0  0  0  0  0  0
   32.9670   74.4400   14.4460 C   0  0  0  0  0  0  0  0  0  0  0  0
   31.5180   74.7740   14.0840 C   0  0  0  0  0  0  0  0  0  0  0  0
   31.2650   76.2690   13.8410 C   0  0  0  0  0  0  0  0  0  0  0  0
   31.2000   77.1050   15.0930 C   0  0  0  0  0  0  0  0  0  0  0  0
   30.6340   76.5800   16.2550 C   0  0  0  0  0  0  0  0  0  0  0  0
   30.5740   77.3540   17.4130 C   0  0  0  0  0  0  0  0  0  0  0  0
   31.0790   78.6540   17.4100 C   0  0  0  0  0  0  0  0  0  0  0  0
   31.0160   79.4370   18.5810 N   0  0  0  0  0  0  0  0  0  0  0  0
   29.8920   79.3120   19.4880 C   0  0  0  0  0  0  0  0  0  0  0  0
   28.7330   80.1900   19.0430 C   0  0  0  0  0  0  0  0  0  0  0  0
   27.3120   79.9730   20.0940 Cl  0  0  0  0  0  0  0  0  0  0  0  0
   32.0680   80.3880   18.8860 C   0  0  0  0  0  0  0  0  0  0  0  0
   33.2600   79.6950   19.5260 C   0  0  0  0  0  0  0  0  0  0  0  0
   33.4160   80.1240   21.2480 Cl  0  0  0  0  0  0  0  0  0  0  0  0
   31.6440   79.1800   16.2480 C   0  0  0  0  0  0  0  0  0  0  0  0
   31.7040   78.4060   15.0900 C   0  0  0  0  0  0  0  0  0  0  0  0
   32.0160   72.3300   14.8240 O   0  0  0  0  0  0  0  0  0  0  0  0
   31.8860   71.6780   16.1000 C   0  0  2  0  0  0  0  0  0  0  0  0
   31.1700   70.3460   15.9150 C   0  0  0  0  0  0  0  0  0  0  0  0
   31.1680   69.4050   16.9450 C   0  0  0  0  0  0  0  0  0  0  0  0
   30.5130   68.1860   16.7760 C   0  0  0  0  0  0  0  0  0  0  0  0
   29.8600   67.9060   15.5760 C   0  0  0  0  0  0  0  0  0  0  0  0
   29.8630   68.8460   14.5450 C   0  0  0  0  0  0  0  0  0  0  0  0
   30.5170   70.0660   14.7140 C   0  0  0  0  0  0  0  0  0  0  0  0
   31.2530   72.5630   17.1230 C   0  0  0  0  0  0  0  0  0  0  0  0
   29.8630   72.6540   17.1700 C   0  0  0  0  0  0  0  0  0  0  0  0
   29.2470   73.4730   18.1160 C   0  0  0  0  0  0  0  0  0  0  0  0
   27.8840   73.5170   18.1090 O   0  0  0  0  0  0  0  0  0  0  0  0
   30.0250   74.2050   19.0200 C   0  0  0  0  0  0  0  0  0  0  0  0
   31.4170   74.1140   18.9730 C   0  0  0  0  0  0  0  0  0  0  0  0
   32.0320   73.2910   18.0230 C   0  0  0  0  0  0  0  0  0  0  0  0
   33.3890   73.1700   17.9370 O   0  0  0  0  0  0  0  0  0  0  0  0
   32.2510   74.8820   19.9210 C   0  0  0  0  0  0  0  0  0  0  0  0
   33.4730   74.8200   19.9030 O   0  0  0  0  0  0  0  0  0  0  0  0
   31.5900   75.7470   20.9200 C   0  0  0  0  0  0  0  0  0  0  0  0
   32.3680   76.4790   21.8240 C   0  0  0  0  0  0  0  0  0  0  0  0
   31.7520   77.2980   22.7710 C   0  0  0  0  0  0  0  0  0  0  0  0
   30.3630   77.3880   22.8180 C   0  0  0  0  0  0  0  0  0  0  0  0
   29.5830   76.6600   21.9190 C   0  0  0  0  0  0  0  0  0  0  0  0
   30.1970   75.8360   20.9670 C   0  0  0  0  0  0  0  0  0  0  0  0
   29.3630   75.0690   20.0200 C   0  0  0  0  0  0  0  0  0  0  0  0
   28.1450   75.1660   20.0810 O   0  0  0  0  0  0  0  0  0  0  0  0
   33.2176   74.9443   15.3909 H   0  0  0  0  0  0  0  0  0  0  0  0
   33.6018   74.7847   13.6164 H   0  0  0  0  0  0  0  0  0  0  0  0
   31.2547   74.2250   13.1679 H   0  0  0  0  0  0  0  0  0  0  0  0
   30.8988   74.4817   14.9449 H   0  0  0  0  0  0  0  0  0  0  0  0
   32.0791   76.6570   13.2111 H   0  0  0  0  0  0  0  0  0  0  0  0
   30.2770   76.3448   13.3635 H   0  0  0  0  0  0  0  0  0  0  0  0
   30.2349   75.5550   16.2575 H   0  0  0  0  0  0  0  0  0  0  0  0
   30.1283   76.9393   18.3292 H   0  0  0  0  0  0  0  0  0  0  0  0
   29.5614   78.2631   19.5088 H   0  0  0  0  0  0  0  0  0  0  0  0
   30.2121   79.6349   20.4896 H   0  0  0  0  0  0  0  0  0  0  0  0
   29.0476   81.2434   19.0796 H   0  0  0  0  0  0  0  0  0  0  0  0
   28.4534   79.9012   18.0191 H   0  0  0  0  0  0  0  0  0  0  0  0
   32.3927   80.8760   17.9552 H   0  0  0  0  0  0  0  0  0  0  0  0
   31.6735   81.1319   19.5938 H   0  0  0  0  0  0  0  0  0  0  0  0
   33.1297   78.6062   19.4391 H   0  0  0  0  0  0  0  0  0  0  0  0
   34.1713   80.0227   19.0043 H   0  0  0  0  0  0  0  0  0  0  0  0
   32.0421   80.2054   16.2454 H   0  0  0  0  0  0  0  0  0  0  0  0
   32.1489   78.8212   14.1736 H   0  0  0  0  0  0  0  0  0  0  0  0
   32.8871   71.4644   16.5028 H   0  0  0  0  0  0  0  0  0  0  0  0
   31.6837   69.6251   17.8914 H   0  0  0  0  0  0  0  0  0  0  0  0
   30.5113   67.4451   17.5891 H   0  0  0  0  0  0  0  0  0  0  0  0
   29.3428   66.9444   15.4424 H   0  0  0  0  0  0  0  0  0  0  0  0
   29.3490   68.6246   13.5980 H   0  0  0  0  0  0  0  0  0  0  0  0
   30.5181   70.8071   13.9011 H   0  0  0  0  0  0  0  0  0  0  0  0
   29.2508   72.0789   16.4598 H   0  0  0  0  0  0  0  0  0  0  0  0
   27.4140   74.3390   18.3940 H   0  0  0  0  0  0  0  0  0  0  0  0
   33.8310   73.1670   17.0500 H   0  0  0  0  0  0  0  0  0  0  0  0
   33.4652   76.4087   21.7880 H   0  0  0  0  0  0  0  0  0  0  0  0
   32.3642   77.8732   23.4812 H   0  0  0  0  0  0  0  0  0  0  0  0
   29.8799   78.0344   23.5655 H   0  0  0  0  0  0  0  0  0  0  0  0
   28.4861   76.7331   21.9578 H   0  0  0  0  0  0  0  0  0  0  0  0
  1  2  2  0
  2  3  1  0
  3  4  1  0
  4  5  1  0
  5  6  1  0
  6  7  1  0
  7  8  2  0
  8  9  1  0
  9 10  1  0
 10 11  1  0
 11 12  1  0
 12 13  1  0
 10 14  1  0
 14 15  1  0
 15 16  1  0
  9 17  2  0
 17 18  1  0
  2 19  1  0
 19 20  1  0
 20 21  1  0
 21 22  2  0
 22 23  1  0
 23 24  2  0
 24 25  1  0
 25 26  2  0
 20 27  1  0
 27 28  1  0
 28 29  2  0
 29 30  1  0
 29 31  1  0
 31 32  2  0
 32 33  1  0
 33 34  1  0
 32 35  1  0
 35 36  2  0
 35 37  1  0
 37 38  2  0
 38 39  1  0
 39 40  2  0
 40 41  1  0
 41 42  2  0
 42 43  1  0
 43 44  2  0
 18  6  2  0
 26 21  1  0
 33 27  2  0
 42 37  1  0
 43 31  1  0
  3 45  1  0
  3 46  1  0
  4 47  1  0
  4 48  1  0
  5 49  1  0
  5 50  1  0
  7 51  1  0
  8 52  1  0
 11 53  1  0
 11 54  1  0
 12 55  1  0
 12 56  1  0
 14 57  1  0
 14 58  1  0
 15 59  1  0
 15 60  1  0
 17 61  1  0
 18 62  1  0
 20 63  1  1
 22 64  1  0
 23 65  1  0
 24 66  1  0
 25 67  1  0
 26 68  1  0
 28 69  1  0
 30 70  1  0
 34 71  1  0
 38 72  1  0
 39 73  1  0
 40 74  1  0
 41 75  1  0
M  END
>  <meeko>  (9) 
{"is_sidechain": [false], "free_energy": -7.287, "intermolecular_energy": -13.689, "internal_energy": -4.11}

$$$$
