6EQM_unknown_cid_out
     RDKit          3D

 51 53  0  0  0  0  0  0  0  0999 V2000
   28.9970   73.1020   22.9310 C   0  0  0  0  0  0  0  0  0  0  0  0
   29.3140   73.6380   21.5020 C   0  0  1  0  0  0  0  0  0  0  0  0
   29.5550   75.1510   21.5860 C   0  0  0  0  0  0  0  0  0  0  0  0
   28.7760   75.9660   20.8590 N   0  0  0  0  0  0  0  0  0  0  0  0
   28.9140   77.2850   20.8320 C   0  0  0  0  0  0  0  0  0  0  0  0
   28.0470   77.9760   19.9780 N   0  0  0  0  0  0  0  0  0  0  0  0
   27.6990   79.2640   20.0310 C   0  0  0  0  0  0  0  0  0  0  0  0
   28.0040   80.0460   20.9280 O   0  0  0  0  0  0  0  0  0  0  0  0
   26.8130   79.7540   18.9480 C   0  0  0  0  0  0  0  0  0  0  0  0
   25.5530   79.2820   18.9830 N   0  0  0  0  0  0  0  0  0  0  0  0
   24.6740   79.6540   18.0500 C   0  0  0  0  0  0  0  0  0  0  0  0
   25.0280   80.5360   17.0470 C   0  0  0  0  0  0  0  0  0  0  0  0
   24.0000   80.9350   16.0340 C   0  0  0  0  0  0  0  0  0  0  0  0
   22.8170   80.4030   16.3430 F   0  0  0  0  0  0  0  0  0  0  0  0
   23.9000   82.2690   15.9200 F   0  0  0  0  0  0  0  0  0  0  0  0
   24.3520   80.3850   14.8600 F   0  0  0  0  0  0  0  0  0  0  0  0
   26.3260   81.0520   16.9780 C   0  0  0  0  0  0  0  0  0  0  0  0
   27.2220   80.6600   17.9550 C   0  0  0  0  0  0  0  0  0  0  0  0
   28.8710   81.2710   17.8850 Cl  0  0  0  0  0  0  0  0  0  0  0  0
   29.8540   77.9340   21.6630 C   0  0  0  0  0  0  0  0  0  0  0  0
   30.6930   77.1390   22.4390 C   0  0  0  0  0  0  0  0  0  0  0  0
   30.5690   75.7600   22.3750 C   0  0  0  0  0  0  0  0  0  0  0  0
   31.3550   75.0020   23.1210 F   0  0  0  0  0  0  0  0  0  0  0  0
   30.5700   72.9680   20.9030 C   0  0  0  0  0  0  0  0  0  0  0  0
   30.6660   73.4700   19.5540 O   0  0  0  0  0  0  0  0  0  0  0  0
   29.5810   73.2360   18.6480 C   0  0  1  0  0  0  0  0  0  0  0  0
   29.6160   74.4050   17.6100 C   0  0  0  0  0  0  0  0  0  0  0  0
   29.9080   71.8770   18.0070 C   0  0  0  0  0  0  0  0  0  0  0  0
   29.3470   71.8580   16.7800 F   0  0  0  0  0  0  0  0  0  0  0  0
   31.2600   71.7980   17.8530 F   0  0  0  0  0  0  0  0  0  0  0  0
   29.4160   70.8630   18.7600 F   0  0  0  0  0  0  0  0  0  0  0  0
   28.2440   73.1790   19.4120 C   0  0  0  0  0  0  0  0  0  0  0  0
   27.1290   72.9310   18.7450 N   0  0  0  0  0  0  0  0  0  0  0  0
   28.1330   73.3780   20.6740 N   0  0  0  0  0  0  0  0  0  0  0  0
   29.4064   73.7943   23.6814 H   0  0  0  0  0  0  0  0  0  0  0  0
   27.9074   73.0239   23.0600 H   0  0  0  0  0  0  0  0  0  0  0  0
   29.4535   72.1095   23.0600 H   0  0  0  0  0  0  0  0  0  0  0  0
   27.6280   77.4250   19.2160 H   0  0  0  0  0  0  0  0  0  0  0  0
   23.6506   79.2517   18.0801 H   0  0  0  0  0  0  0  0  0  0  0  0
   26.6229   81.7440   16.1762 H   0  0  0  0  0  0  0  0  0  0  0  0
   29.9209   79.0315   21.6959 H   0  0  0  0  0  0  0  0  0  0  0  0
   31.4457   77.6000   23.0954 H   0  0  0  0  0  0  0  0  0  0  0  0
   31.4651   73.2427   21.4804 H   0  0  0  0  0  0  0  0  0  0  0  0
   30.4987   71.8706   20.9268 H   0  0  0  0  0  0  0  0  0  0  0  0
   29.6448   75.3672   18.1423 H   0  0  0  0  0  0  0  0  0  0  0  0
   30.5116   74.3082   16.9788 H   0  0  0  0  0  0  0  0  0  0  0  0
   28.7162   74.3619   16.9788 H   0  0  0  0  0  0  0  0  0  0  0  0
   28.1033   74.2573   19.2462 H   0  0  0  0  0  0  0  0  0  0  0  0
   26.7490   73.8130   18.3720 H   0  0  0  0  0  0  0  0  0  0  0  0
   27.3310   72.2870   17.9670 H   0  0  0  0  0  0  0  0  0  0  0  0
   27.6800   72.5380   21.0650 H   0  0  0  0  0  0  0  0  0  0  0  0
  2  1  1  1
  2  3  1  0
  3  4  1  0
  4  5  2  0
  5  6  1  0
  6  7  1  0
  7  8  2  0
  7  9  1  0
  9 10  1  0
 10 11  2  0
 11 12  1  0
 12 13  1  0
 13 14  1  0
 13 15  1  0
 13 16  1  0
 12 17  2  0
 17 18  1  0
 18 19  1  0
  5 20  1  0
 20 21  2  0
 21 22  1  0
 22 23  1  0
  2 24  1  0
 24 25  1  0
 25 26  1  0
 26 27  1  6
 26 28  1  0
 28 29  1  0
 28 30  1  0
 28 31  1  0
 26 32  1  0
 32 33  1  0
 32 34  1  0
 34  2  1  0
 22  3  2  0
 18  9  2  0
  1 35  1  0
  1 36  1  0
  1 37  1  0
  6 38  1  0
 11 39  1  0
 17 40  1  0
 20 41  1  0
 21 42  1  0
 24 43  1  0
 24 44  1  0
 27 45  1  0
 27 46  1  0
 27 47  1  0
 32 48  1  0
 33 49  1  0
 33 50  1  0
 34 51  1  0
M  END
>  <meeko>  (1) 
{"is_sidechain": [false], "free_energy": -10.435, "intermolecular_energy": -13.791, "internal_energy": -0.514}

$$$$
6EQM_unknown_cid_out
     RDKit          3D

 51 53  0  0  0  0  0  0  0  0999 V2000
   30.5330   72.9390   20.8380 C   0  0  0  0  0  0  0  0  0  0  0  0
   30.9610   74.2180   20.0550 C   0  0  1  0  0  0  0  0  0  0  0  0
   30.3990   75.4490   20.7770 C   0  0  0  0  0  0  0  0  0  0  0  0
   29.4910   76.2060   20.1430 N   0  0  0  0  0  0  0  0  0  0  0  0
   28.9610   77.3070   20.6590 C   0  0  0  0  0  0  0  0  0  0  0  0
   28.0660   78.0020   19.8380 N   0  0  0  0  0  0  0  0  0  0  0  0
   27.7820   79.3070   19.8550 C   0  0  0  0  0  0  0  0  0  0  0  0
   28.1880   80.1100   20.6910 O   0  0  0  0  0  0  0  0  0  0  0  0
   26.8430   79.7920   18.8160 C   0  0  0  0  0  0  0  0  0  0  0  0
   25.5730   79.3630   18.9490 N   0  0  0  0  0  0  0  0  0  0  0  0
   24.6470   79.7340   18.0630 C   0  0  0  0  0  0  0  0  0  0  0  0
   24.9610   80.5730   17.0100 C   0  0  0  0  0  0  0  0  0  0  0  0
   23.8820   80.9740   16.0540 C   0  0  0  0  0  0  0  0  0  0  0  0
   24.3540   80.9990   14.8070 F   0  0  0  0  0  0  0  0  0  0  0  0
   22.8140   80.1630   16.1350 F   0  0  0  0  0  0  0  0  0  0  0  0
   23.5360   82.2400   16.3390 F   0  0  0  0  0  0  0  0  0  0  0  0
   26.2670   81.0430   16.8400 C   0  0  0  0  0  0  0  0  0  0  0  0
   27.2130   80.6520   17.7700 C   0  0  0  0  0  0  0  0  0  0  0  0
   28.8720   81.2060   17.5720 Cl  0  0  0  0  0  0  0  0  0  0  0  0
   29.2600   77.7060   21.9810 C   0  0  0  0  0  0  0  0  0  0  0  0
   30.1990   76.9590   22.6880 C   0  0  0  0  0  0  0  0  0  0  0  0
   30.7890   75.8630   22.0810 C   0  0  0  0  0  0  0  0  0  0  0  0
   31.6710   75.1430   22.7540 F   0  0  0  0  0  0  0  0  0  0  0  0
   32.4970   74.3500   19.9690 C   0  0  0  0  0  0  0  0  0  0  0  0
   32.7370   75.4970   19.1270 O   0  0  0  0  0  0  0  0  0  0  0  0
   32.2310   75.4910   17.7870 C   0  0  1  0  0  0  0  0  0  0  0  0
   32.0030   76.9880   17.3970 C   0  0  0  0  0  0  0  0  0  0  0  0
   33.3520   74.8370   16.9610 C   0  0  0  0  0  0  0  0  0  0  0  0
   33.1370   73.5050   16.9620 F   0  0  0  0  0  0  0  0  0  0  0  0
   33.2430   75.2800   15.6770 F   0  0  0  0  0  0  0  0  0  0  0  0
   34.5650   75.1130   17.4990 F   0  0  0  0  0  0  0  0  0  0  0  0
   30.9310   74.6670   17.7050 C   0  0  0  0  0  0  0  0  0  0  0  0
   30.3360   74.5140   16.5340 N   0  0  0  0  0  0  0  0  0  0  0  0
   30.3650   74.1220   18.7190 N   0  0  0  0  0  0  0  0  0  0  0  0
   30.5976   73.1321   21.9190 H   0  0  0  0  0  0  0  0  0  0  0  0
   29.4980   72.6764   20.5736 H   0  0  0  0  0  0  0  0  0  0  0  0
   31.2015   72.1064   20.5736 H   0  0  0  0  0  0  0  0  0  0  0  0
   27.5670   77.4390   19.1340 H   0  0  0  0  0  0  0  0  0  0  0  0
   23.6161   79.3660   18.1722 H   0  0  0  0  0  0  0  0  0  0  0  0
   26.5320   81.6993   15.9979 H   0  0  0  0  0  0  0  0  0  0  0  0
   28.7675   78.5777   22.4367 H   0  0  0  0  0  0  0  0  0  0  0  0
   30.4691   77.2366   23.7176 H   0  0  0  0  0  0  0  0  0  0  0  0
   32.9260   74.5104   20.9691 H   0  0  0  0  0  0  0  0  0  0  0  0
   32.9635   73.4402   19.5633 H   0  0  0  0  0  0  0  0  0  0  0  0
   31.9106   77.5947   18.3099 H   0  0  0  0  0  0  0  0  0  0  0  0
   32.8569   77.3464   16.8034 H   0  0  0  0  0  0  0  0  0  0  0  0
   31.0811   77.0759   16.8034 H   0  0  0  0  0  0  0  0  0  0  0  0
   30.3420   75.5784   17.8852 H   0  0  0  0  0  0  0  0  0  0  0  0
   29.6140   73.7820   16.6080 H   0  0  0  0  0  0  0  0  0  0  0  0
   29.8970   75.4020   16.2530 H   0  0  0  0  0  0  0  0  0  0  0  0
   30.2850   73.1170   18.5050 H   0  0  0  0  0  0  0  0  0  0  0  0
  2  1  1  1
  2  3  1  0
  3  4  1  0
  4  5  2  0
  5  6  1  0
  6  7  1  0
  7  8  2  0
  7  9  1  0
  9 10  1  0
 10 11  2  0
 11 12  1  0
 12 13  1  0
 13 14  1  0
 13 15  1  0
 13 16  1  0
 12 17  2  0
 17 18  1  0
 18 19  1  0
  5 20  1  0
 20 21  2  0
 21 22  1  0
 22 23  1  0
  2 24  1  0
 24 25  1  0
 25 26  1  0
 26 27  1  6
 26 28  1  0
 28 29  1  0
 28 30  1  0
 28 31  1  0
 26 32  1  0
 32 33  1  0
 32 34  1  0
 34  2  1  0
 22  3  2  0
 18  9  2  0
  1 35  1  0
  1 36  1  0
  1 37  1  0
  6 38  1  0
 11 39  1  0
 17 40  1  0
 20 41  1  0
 21 42  1  0
 24 43  1  0
 24 44  1  0
 27 45  1  0
 27 46  1  0
 27 47  1  0
 32 48  1  0
 33 49  1  0
 33 50  1  0
 34 51  1  0
M  END
>  <meeko>  (2) 
{"is_sidechain": [false], "free_energy": -9.134, "intermolecular_energy": -12.006, "internal_energy": -0.579}

$$$$
6EQM_unknown_cid_out
     RDKit          3D

 51 53  0  0  0  0  0  0  0  0999 V2000
   34.1180   78.5390   20.4370 C   0  0  0  0  0  0  0  0  0  0  0  0
   33.2890   77.4490   19.6940 C   0  0  1  0  0  0  0  0  0  0  0  0
   31.9430   77.2820   20.4090 C   0  0  0  0  0  0  0  0  0  0  0  0
   30.8340   77.7350   19.8050 N   0  0  0  0  0  0  0  0  0  0  0  0
   29.6240   77.6700   20.3440 C   0  0  0  0  0  0  0  0  0  0  0  0
   28.5860   78.2380   19.5940 N   0  0  0  0  0  0  0  0  0  0  0  0
   27.9450   79.3870   19.8210 C   0  0  0  0  0  0  0  0  0  0  0  0
   28.0900   80.0970   20.8130 O   0  0  0  0  0  0  0  0  0  0  0  0
   26.9290   79.7860   18.8180 C   0  0  0  0  0  0  0  0  0  0  0  0
   25.6880   79.3140   19.0440 N   0  0  0  0  0  0  0  0  0  0  0  0
   24.6980   79.6070   18.1980 C   0  0  0  0  0  0  0  0  0  0  0  0
   24.9180   80.4070   17.0920 C   0  0  0  0  0  0  0  0  0  0  0  0
   23.7700   80.7200   16.1840 C   0  0  0  0  0  0  0  0  0  0  0  0
   22.6120   80.5020   16.8090 F   0  0  0  0  0  0  0  0  0  0  0  0
   23.8250   81.9800   15.7230 F   0  0  0  0  0  0  0  0  0  0  0  0
   23.8060   79.8430   15.1670 F   0  0  0  0  0  0  0  0  0  0  0  0
   26.1910   80.9190   16.8250 C   0  0  0  0  0  0  0  0  0  0  0  0
   27.2040   80.6090   17.7140 C   0  0  0  0  0  0  0  0  0  0  0  0
   28.8240   81.2170   17.3950 Cl  0  0  0  0  0  0  0  0  0  0  0  0
   29.4120   77.0170   21.5780 C   0  0  0  0  0  0  0  0  0  0  0  0
   30.5270   76.5290   22.2540 C   0  0  0  0  0  0  0  0  0  0  0  0
   31.7830   76.6900   21.6930 C   0  0  0  0  0  0  0  0  0  0  0  0
   32.8430   76.2160   22.3250 F   0  0  0  0  0  0  0  0  0  0  0  0
   33.0260   77.8330   18.2210 C   0  0  0  0  0  0  0  0  0  0  0  0
   32.3620   76.6910   17.6400 O   0  0  0  0  0  0  0  0  0  0  0  0
   33.0320   75.4250   17.6400 C   0  0  1  0  0  0  0  0  0  0  0  0
   31.9110   74.3350   17.6370 C   0  0  0  0  0  0  0  0  0  0  0  0
   33.8480   75.4280   16.3360 C   0  0  0  0  0  0  0  0  0  0  0  0
   35.0520   75.9730   16.6070 F   0  0  0  0  0  0  0  0  0  0  0  0
   34.0470   74.1330   15.9610 F   0  0  0  0  0  0  0  0  0  0  0  0
   33.2150   76.1490   15.3780 F   0  0  0  0  0  0  0  0  0  0  0  0
   33.9550   75.3040   18.8690 C   0  0  0  0  0  0  0  0  0  0  0  0
   34.6900   74.2140   19.0190 N   0  0  0  0  0  0  0  0  0  0  0  0
   34.0480   76.1980   19.7840 N   0  0  0  0  0  0  0  0  0  0  0  0
   34.0137   78.4019   21.5234 H   0  0  0  0  0  0  0  0  0  0  0  0
   35.1777   78.4487   20.1561 H   0  0  0  0  0  0  0  0  0  0  0  0
   33.7479   79.5361   20.1561 H   0  0  0  0  0  0  0  0  0  0  0  0
   28.2810   77.7050   18.7680 H   0  0  0  0  0  0  0  0  0  0  0  0
   23.6909   79.2055   18.3837 H   0  0  0  0  0  0  0  0  0  0  0  0
   26.3800   81.5452   15.9406 H   0  0  0  0  0  0  0  0  0  0  0  0
   28.3996   76.8979   21.9914 H   0  0  0  0  0  0  0  0  0  0  0  0
   30.4117   76.0212   23.2229 H   0  0  0  0  0  0  0  0  0  0  0  0
   32.3817   78.7228   18.1644 H   0  0  0  0  0  0  0  0  0  0  0  0
   33.9573   78.0787   17.6897 H   0  0  0  0  0  0  0  0  0  0  0  0
   31.6467   74.0780   18.6734 H   0  0  0  0  0  0  0  0  0  0  0  0
   31.0227   74.7240   17.1178 H   0  0  0  0  0  0  0  0  0  0  0  0
   32.2749   73.4362   17.1178 H   0  0  0  0  0  0  0  0  0  0  0  0
   33.1389   74.8316   19.4354 H   0  0  0  0  0  0  0  0  0  0  0  0
   34.0880   73.4330   19.3180 H   0  0  0  0  0  0  0  0  0  0  0  0
   35.1400   73.9780   18.1240 H   0  0  0  0  0  0  0  0  0  0  0  0
   35.0430   76.4610   19.8360 H   0  0  0  0  0  0  0  0  0  0  0  0
  2  1  1  1
  2  3  1  0
  3  4  1  0
  4  5  2  0
  5  6  1  0
  6  7  1  0
  7  8  2  0
  7  9  1  0
  9 10  1  0
 10 11  2  0
 11 12  1  0
 12 13  1  0
 13 14  1  0
 13 15  1  0
 13 16  1  0
 12 17  2  0
 17 18  1  0
 18 19  1  0
  5 20  1  0
 20 21  2  0
 21 22  1  0
 22 23  1  0
  2 24  1  0
 24 25  1  0
 25 26  1  0
 26 27  1  6
 26 28  1  0
 28 29  1  0
 28 30  1  0
 28 31  1  0
 26 32  1  0
 32 33  1  0
 32 34  1  0
 34  2  1  0
 22  3  2  0
 18  9  2  0
  1 35  1  0
  1 36  1  0
  1 37  1  0
  6 38  1  0
 11 39  1  0
 17 40  1  0
 20 41  1  0
 21 42  1  0
 24 43  1  0
 24 44  1  0
 27 45  1  0
 27 46  1  0
 27 47  1  0
 32 48  1  0
 33 49  1  0
 33 50  1  0
 34 51  1  0
M  END
>  <meeko>  (3) 
{"is_sidechain": [false], "free_energy": -9.069, "intermolecular_energy": -11.784, "internal_energy": -0.714}

$$$$
6EQM_unknown_cid_out
     RDKit          3D

 51 53  0  0  0  0  0  0  0  0999 V2000
   33.4490   75.5580   22.7250 C   0  0  0  0  0  0  0  0  0  0  0  0
   32.6890   75.5810   21.3640 C   0  0  1  0  0  0  0  0  0  0  0  0
   31.4730   74.6520   21.4640 C   0  0  0  0  0  0  0  0  0  0  0  0
   31.3040   73.7110   20.5230 N   0  0  0  0  0  0  0  0  0  0  0  0
   30.2740   72.8760   20.4940 C   0  0  0  0  0  0  0  0  0  0  0  0
   30.2310   71.9910   19.4100 N   0  0  0  0  0  0  0  0  0  0  0  0
   29.6850   72.1930   18.2080 C   0  0  0  0  0  0  0  0  0  0  0  0
   29.0180   73.1730   17.8880 O   0  0  0  0  0  0  0  0  0  0  0  0
   29.8500   71.1040   17.2160 C   0  0  0  0  0  0  0  0  0  0  0  0
   28.8600   70.1910   17.2010 N   0  0  0  0  0  0  0  0  0  0  0  0
   28.9110   69.1640   16.3510 C   0  0  0  0  0  0  0  0  0  0  0  0
   29.9620   69.0240   15.4630 C   0  0  0  0  0  0  0  0  0  0  0  0
   29.9640   67.8640   14.5180 C   0  0  0  0  0  0  0  0  0  0  0  0
   29.6790   68.2740   13.2810 F   0  0  0  0  0  0  0  0  0  0  0  0
   31.1350   67.2050   14.5360 F   0  0  0  0  0  0  0  0  0  0  0  0
   28.9580   67.0480   14.8740 F   0  0  0  0  0  0  0  0  0  0  0  0
   31.0070   69.9530   15.4450 C   0  0  0  0  0  0  0  0  0  0  0  0
   30.9350   71.0140   16.3290 C   0  0  0  0  0  0  0  0  0  0  0  0
   32.2460   72.1880   16.3500 Cl  0  0  0  0  0  0  0  0  0  0  0  0
   29.3180   72.8650   21.5330 C   0  0  0  0  0  0  0  0  0  0  0  0
   29.4400   73.8210   22.5380 C   0  0  0  0  0  0  0  0  0  0  0  0
   30.4860   74.7290   22.4860 C   0  0  0  0  0  0  0  0  0  0  0  0
   30.6130   75.6300   23.4450 F   0  0  0  0  0  0  0  0  0  0  0  0
   32.2030   77.0010   21.0030 C   0  0  0  0  0  0  0  0  0  0  0  0
   31.6320   76.8860   19.6820 O   0  0  0  0  0  0  0  0  0  0  0  0
   32.4600   76.4300   18.6060 C   0  0  1  0  0  0  0  0  0  0  0  0
   31.5020   75.7540   17.5710 C   0  0  0  0  0  0  0  0  0  0  0  0
   33.1060   77.7120   18.0540 C   0  0  0  0  0  0  0  0  0  0  0  0
   33.4340   77.4820   16.7650 F   0  0  0  0  0  0  0  0  0  0  0  0
   32.1690   78.7010   18.0790 F   0  0  0  0  0  0  0  0  0  0  0  0
   34.2130   78.0330   18.7660 F   0  0  0  0  0  0  0  0  0  0  0  0
   33.5310   75.4510   19.1280 C   0  0  0  0  0  0  0  0  0  0  0  0
   34.4180   74.9530   18.2820 N   0  0  0  0  0  0  0  0  0  0  0  0
   33.6130   75.0670   20.3490 N   0  0  0  0  0  0  0  0  0  0  0  0
   32.7228   75.5800   23.5509 H   0  0  0  0  0  0  0  0  0  0  0  0
   34.0531   74.6412   22.7922 H   0  0  0  0  0  0  0  0  0  0  0  0
   34.1074   76.4366   22.7922 H   0  0  0  0  0  0  0  0  0  0  0  0
   30.6750   71.0730   19.5570 H   0  0  0  0  0  0  0  0  0  0  0  0
   28.1041   68.4165   16.3565 H   0  0  0  0  0  0  0  0  0  0  0  0
   31.8551   69.8438   14.7531 H   0  0  0  0  0  0  0  0  0  0  0  0
   28.5037   72.1256   21.5480 H   0  0  0  0  0  0  0  0  0  0  0  0
   28.7144   73.8553   23.3640 H   0  0  0  0  0  0  0  0  0  0  0  0
   31.4439   77.3425   21.7221 H   0  0  0  0  0  0  0  0  0  0  0  0
   33.0228   77.7339   21.0322 H   0  0  0  0  0  0  0  0  0  0  0  0
   30.7166   75.1998   18.1059 H   0  0  0  0  0  0  0  0  0  0  0  0
   31.0400   76.5272   16.9396 H   0  0  0  0  0  0  0  0  0  0  0  0
   32.0756   75.0595   16.9396 H   0  0  0  0  0  0  0  0  0  0  0  0
   32.8588   74.6053   18.9210 H   0  0  0  0  0  0  0  0  0  0  0  0
   33.9380   74.3480   17.6000 H   0  0  0  0  0  0  0  0  0  0  0  0
   34.8900   75.7220   17.7870 H   0  0  0  0  0  0  0  0  0  0  0  0
   34.5640   75.3060   20.6690 H   0  0  0  0  0  0  0  0  0  0  0  0
  2  1  1  1
  2  3  1  0
  3  4  1  0
  4  5  2  0
  5  6  1  0
  6  7  1  0
  7  8  2  0
  7  9  1  0
  9 10  1  0
 10 11  2  0
 11 12  1  0
 12 13  1  0
 13 14  1  0
 13 15  1  0
 13 16  1  0
 12 17  2  0
 17 18  1  0
 18 19  1  0
  5 20  1  0
 20 21  2  0
 21 22  1  0
 22 23  1  0
  2 24  1  0
 24 25  1  0
 25 26  1  0
 26 27  1  6
 26 28  1  0
 28 29  1  0
 28 30  1  0
 28 31  1  0
 26 32  1  0
 32 33  1  0
 32 34  1  0
 34  2  1  0
 22  3  2  0
 18  9  2  0
  1 35  1  0
  1 36  1  0
  1 37  1  0
  6 38  1  0
 11 39  1  0
 17 40  1  0
 20 41  1  0
 21 42  1  0
 24 43  1  0
 24 44  1  0
 27 45  1  0
 27 46  1  0
 27 47  1  0
 32 48  1  0
 33 49  1  0
 33 50  1  0
 34 51  1  0
M  END
>  <meeko>  (4) 
{"is_sidechain": [false], "free_energy": -8.92, "intermolecular_energy": -11.188, "internal_energy": -1.114}

$$$$
6EQM_unknown_cid_out
     RDKit          3D

 51 53  0  0  0  0  0  0  0  0999 V2000
   29.0910   78.6320   19.3710 C   0  0  0  0  0  0  0  0  0  0  0  0
   29.9180   77.3160   19.4900 C   0  0  1  0  0  0  0  0  0  0  0  0
   30.5440   77.0020   18.1250 C   0  0  0  0  0  0  0  0  0  0  0  0
   30.3780   75.7750   17.6090 N   0  0  0  0  0  0  0  0  0  0  0  0
   30.8990   75.3860   16.4540 C   0  0  0  0  0  0  0  0  0  0  0  0
   30.6670   74.0540   16.0920 N   0  0  0  0  0  0  0  0  0  0  0  0
   31.3780   72.9760   16.4330 C   0  0  0  0  0  0  0  0  0  0  0  0
   32.4430   72.9930   17.0440 O   0  0  0  0  0  0  0  0  0  0  0  0
   30.8600   71.6680   15.9660 C   0  0  0  0  0  0  0  0  0  0  0  0
   31.4900   71.1540   14.8920 N   0  0  0  0  0  0  0  0  0  0  0  0
   31.1000   69.9840   14.3850 C   0  0  0  0  0  0  0  0  0  0  0  0
   30.0610   69.2700   14.9540 C   0  0  0  0  0  0  0  0  0  0  0  0
   29.6730   67.9540   14.3570 C   0  0  0  0  0  0  0  0  0  0  0  0
   28.8880   67.2780   15.1980 F   0  0  0  0  0  0  0  0  0  0  0  0
   29.0670   68.1020   13.1670 F   0  0  0  0  0  0  0  0  0  0  0  0
   30.7900   67.2190   14.2300 F   0  0  0  0  0  0  0  0  0  0  0  0
   29.3840   69.7670   16.0710 C   0  0  0  0  0  0  0  0  0  0  0  0
   29.8050   70.9800   16.5870 C   0  0  0  0  0  0  0  0  0  0  0  0
   28.9590   71.6470   17.9780 Cl  0  0  0  0  0  0  0  0  0  0  0  0
   31.6010   76.2950   15.6300 C   0  0  0  0  0  0  0  0  0  0  0  0
   31.8080   77.5830   16.1150 C   0  0  0  0  0  0  0  0  0  0  0  0
   31.3150   77.9240   17.3650 C   0  0  0  0  0  0  0  0  0  0  0  0
   31.4980   79.1510   17.8230 F   0  0  0  0  0  0  0  0  0  0  0  0
   31.0450   77.4400   20.5380 C   0  0  0  0  0  0  0  0  0  0  0  0
   31.6370   76.1260   20.6210 O   0  0  0  0  0  0  0  0  0  0  0  0
   30.8150   75.0180   21.0050 C   0  0  1  0  0  0  0  0  0  0  0  0
   31.4560   73.7490   20.3520 C   0  0  0  0  0  0  0  0  0  0  0  0
   30.9040   74.9920   22.5400 C   0  0  0  0  0  0  0  0  0  0  0  0
   32.2060   75.1010   22.8760 F   0  0  0  0  0  0  0  0  0  0  0  0
   30.2530   76.0900   23.0180 F   0  0  0  0  0  0  0  0  0  0  0  0
   30.3920   73.8370   23.0290 F   0  0  0  0  0  0  0  0  0  0  0  0
   29.3620   75.2380   20.5390 C   0  0  0  0  0  0  0  0  0  0  0  0
   28.4440   74.3340   20.8380 N   0  0  0  0  0  0  0  0  0  0  0  0
   28.9780   76.2500   19.8520 N   0  0  0  0  0  0  0  0  0  0  0  0
   28.8544   79.0086   20.3771 H   0  0  0  0  0  0  0  0  0  0  0  0
   29.6780   79.3859   18.8260 H   0  0  0  0  0  0  0  0  0  0  0  0
   28.1571   78.4302   18.8260 H   0  0  0  0  0  0  0  0  0  0  0  0
   29.8480   73.8840   15.4900 H   0  0  0  0  0  0  0  0  0  0  0  0
   31.6130   69.5801   13.4997 H   0  0  0  0  0  0  0  0  0  0  0  0
   28.5473   69.2144   16.5233 H   0  0  0  0  0  0  0  0  0  0  0  0
   31.9713   75.9945   14.6387 H   0  0  0  0  0  0  0  0  0  0  0  0
   32.3568   78.3223   15.5131 H   0  0  0  0  0  0  0  0  0  0  0  0
   31.7924   78.1792   20.2139 H   0  0  0  0  0  0  0  0  0  0  0  0
   30.6625   77.7788   21.5121 H   0  0  0  0  0  0  0  0  0  0  0  0
   31.8014   73.0652   21.1414 H   0  0  0  0  0  0  0  0  0  0  0  0
   30.7070   73.2398   19.7277 H   0  0  0  0  0  0  0  0  0  0  0  0
   32.3103   74.0497   19.7277 H   0  0  0  0  0  0  0  0  0  0  0  0
   29.5817   74.7050   19.6022 H   0  0  0  0  0  0  0  0  0  0  0  0
   28.1380   74.4650   21.8130 H   0  0  0  0  0  0  0  0  0  0  0  0
   27.6370   74.4430   20.2070 H   0  0  0  0  0  0  0  0  0  0  0  0
   28.2190   76.6970   20.3870 H   0  0  0  0  0  0  0  0  0  0  0  0
  2  1  1  6
  2  3  1  0
  3  4  1  0
  4  5  2  0
  5  6  1  0
  6  7  1  0
  7  8  2  0
  7  9  1  0
  9 10  1  0
 10 11  2  0
 11 12  1  0
 12 13  1  0
 13 14  1  0
 13 15  1  0
 13 16  1  0
 12 17  2  0
 17 18  1  0
 18 19  1  0
  5 20  1  0
 20 21  2  0
 21 22  1  0
 22 23  1  0
  2 24  1  0
 24 25  1  0
 25 26  1  0
 26 27  1  6
 26 28  1  0
 28 29  1  0
 28 30  1  0
 28 31  1  0
 26 32  1  0
 32 33  1  0
 32 34  1  0
 34  2  1  0
 22  3  2  0
 18  9  2  0
  1 35  1  0
  1 36  1  0
  1 37  1  0
  6 38  1  0
 11 39  1  0
 17 40  1  0
 20 41  1  0
 21 42  1  0
 24 43  1  0
 24 44  1  0
 27 45  1  0
 27 46  1  0
 27 47  1  0
 32 48  1  0
 33 49  1  0
 33 50  1  0
 34 51  1  0
M  END
>  <meeko>  (5) 
{"is_sidechain": [false], "free_energy": -8.886, "intermolecular_energy": -11.369, "internal_energy": -0.888}

$$$$
6EQM_unknown_cid_out
     RDKit          3D

 51 53  0  0  0  0  0  0  0  0999 V2000
   34.5400   69.0470   15.5470 C   0  0  0  0  0  0  0  0  0  0  0  0
   33.2430   69.9100   15.6120 C   0  0  1  0  0  0  0  0  0  0  0  0
   33.6330   71.3920   15.5300 C   0  0  0  0  0  0  0  0  0  0  0  0
   33.2280   72.2170   16.5060 N   0  0  0  0  0  0  0  0  0  0  0  0
   33.4810   73.5190   16.5220 C   0  0  0  0  0  0  0  0  0  0  0  0
   32.9370   74.2380   17.5930 N   0  0  0  0  0  0  0  0  0  0  0  0
   33.5480   74.6210   18.7170 C   0  0  0  0  0  0  0  0  0  0  0  0
   34.6860   74.3000   19.0510 O   0  0  0  0  0  0  0  0  0  0  0  0
   32.7480   75.4410   19.6570 C   0  0  0  0  0  0  0  0  0  0  0  0
   33.1040   76.7380   19.7290 N   0  0  0  0  0  0  0  0  0  0  0  0
   32.4530   77.5650   20.5500 C   0  0  0  0  0  0  0  0  0  0  0  0
   31.3990   77.1180   21.3240 C   0  0  0  0  0  0  0  0  0  0  0  0
   30.6910   78.0900   22.2160 C   0  0  0  0  0  0  0  0  0  0  0  0
   29.3940   78.1380   21.9100 F   0  0  0  0  0  0  0  0  0  0  0  0
   30.8560   77.7900   23.5150 F   0  0  0  0  0  0  0  0  0  0  0  0
   31.1750   79.3140   21.9490 F   0  0  0  0  0  0  0  0  0  0  0  0
   30.9970   75.7800   21.2760 C   0  0  0  0  0  0  0  0  0  0  0  0
   31.6790   74.9380   20.4160 C   0  0  0  0  0  0  0  0  0  0  0  0
   31.2140   73.2430   20.3480 Cl  0  0  0  0  0  0  0  0  0  0  0  0
   34.2960   74.1120   15.5320 C   0  0  0  0  0  0  0  0  0  0  0  0
   34.7440   73.3050   14.4910 C   0  0  0  0  0  0  0  0  0  0  0  0
   34.3880   71.9660   14.4700 C   0  0  0  0  0  0  0  0  0  0  0  0
   34.8230   71.1930   13.4890 F   0  0  0  0  0  0  0  0  0  0  0  0
   32.2790   69.5850   14.4500 C   0  0  0  0  0  0  0  0  0  0  0  0
   31.0920   70.3630   14.7070 O   0  0  0  0  0  0  0  0  0  0  0  0
   30.3760   70.1530   15.9300 C   0  0  1  0  0  0  0  0  0  0  0  0
   29.6540   71.5010   16.2550 C   0  0  0  0  0  0  0  0  0  0  0  0
   29.3840   69.0240   15.6010 C   0  0  0  0  0  0  0  0  0  0  0  0
   28.2830   69.2140   16.3570 F   0  0  0  0  0  0  0  0  0  0  0  0
   29.0240   69.1490   14.2930 F   0  0  0  0  0  0  0  0  0  0  0  0
   29.9320   67.8140   15.8710 F   0  0  0  0  0  0  0  0  0  0  0  0
   31.3430   69.7290   17.0540 C   0  0  0  0  0  0  0  0  0  0  0  0
   30.8570   69.4500   18.2530 N   0  0  0  0  0  0  0  0  0  0  0  0
   32.6140   69.6420   16.9080 N   0  0  0  0  0  0  0  0  0  0  0  0
   34.8810   68.8201   16.5679 H   0  0  0  0  0  0  0  0  0  0  0  0
   34.3295   68.1083   15.0136 H   0  0  0  0  0  0  0  0  0  0  0  0
   35.3245   69.6038   15.0136 H   0  0  0  0  0  0  0  0  0  0  0  0
   31.9460   74.5040   17.5030 H   0  0  0  0  0  0  0  0  0  0  0  0
   32.7605   78.6194   20.6115 H   0  0  0  0  0  0  0  0  0  0  0  0
   30.1691   75.4104   21.8989 H   0  0  0  0  0  0  0  0  0  0  0  0
   34.5674   75.1768   15.5826 H   0  0  0  0  0  0  0  0  0  0  0  0
   35.3740   73.7253   13.6932 H   0  0  0  0  0  0  0  0  0  0  0  0
   32.7264   69.8725   13.4871 H   0  0  0  0  0  0  0  0  0  0  0  0
   32.0577   68.5091   14.3912 H   0  0  0  0  0  0  0  0  0  0  0  0
   29.5865   71.6271   17.3457 H   0  0  0  0  0  0  0  0  0  0  0  0
   30.2255   72.3362   15.8240 H   0  0  0  0  0  0  0  0  0  0  0  0
   28.6420   71.4881   15.8240 H   0  0  0  0  0  0  0  0  0  0  0  0
   31.4633   70.7822   17.3478 H   0  0  0  0  0  0  0  0  0  0  0  0
   30.9150   70.2880   18.8490 H   0  0  0  0  0  0  0  0  0  0  0  0
   29.8740   69.1580   18.1650 H   0  0  0  0  0  0  0  0  0  0  0  0
   32.8740   68.6790   17.1670 H   0  0  0  0  0  0  0  0  0  0  0  0
  2  1  1  6
  2  3  1  0
  3  4  1  0
  4  5  2  0
  5  6  1  0
  6  7  1  0
  7  8  2  0
  7  9  1  0
  9 10  1  0
 10 11  2  0
 11 12  1  0
 12 13  1  0
 13 14  1  0
 13 15  1  0
 13 16  1  0
 12 17  2  0
 17 18  1  0
 18 19  1  0
  5 20  1  0
 20 21  2  0
 21 22  1  0
 22 23  1  0
  2 24  1  0
 24 25  1  0
 25 26  1  0
 26 27  1  1
 26 28  1  0
 28 29  1  0
 28 30  1  0
 28 31  1  0
 26 32  1  0
 32 33  1  0
 32 34  1  0
 34  2  1  0
 22  3  2  0
 18  9  2  0
  1 35  1  0
  1 36  1  0
  1 37  1  0
  6 38  1  0
 11 39  1  0
 17 40  1  0
 20 41  1  0
 21 42  1  0
 24 43  1  0
 24 44  1  0
 27 45  1  0
 27 46  1  0
 27 47  1  0
 32 48  1  0
 33 49  1  0
 33 50  1  0
 34 51  1  0
M  END
>  <meeko>  (6) 
{"is_sidechain": [false], "free_energy": -8.524, "intermolecular_energy": -10.808, "internal_energy": -0.971}

$$$$
6EQM_unknown_cid_out
     RDKit          3D

 51 53  0  0  0  0  0  0  0  0999 V2000
   33.8750   78.3820   18.3980 C   0  0  0  0  0  0  0  0  0  0  0  0
   32.6140   77.5970   18.8690 C   0  0  1  0  0  0  0  0  0  0  0  0
   31.7590   77.2580   17.6410 C   0  0  0  0  0  0  0  0  0  0  0  0
   31.5450   75.9680   17.3440 N   0  0  0  0  0  0  0  0  0  0  0  0
   30.8480   75.5600   16.2910 C   0  0  0  0  0  0  0  0  0  0  0  0
   30.7690   74.1750   16.1060 N   0  0  0  0  0  0  0  0  0  0  0  0
   29.8860   73.3260   16.6380 C   0  0  0  0  0  0  0  0  0  0  0  0
   29.0470   73.6160   17.4870 O   0  0  0  0  0  0  0  0  0  0  0  0
   29.9890   71.9110   16.2100 C   0  0  0  0  0  0  0  0  0  0  0  0
   29.4260   71.6330   15.0180 N   0  0  0  0  0  0  0  0  0  0  0  0
   29.4560   70.3880   14.5400 C   0  0  0  0  0  0  0  0  0  0  0  0
   30.0730   69.3680   15.2410 C   0  0  0  0  0  0  0  0  0  0  0  0
   30.0930   67.9920   14.6530 C   0  0  0  0  0  0  0  0  0  0  0  0
   29.8490   68.0450   13.3430 F   0  0  0  0  0  0  0  0  0  0  0  0
   31.2570   67.3630   14.8880 F   0  0  0  0  0  0  0  0  0  0  0  0
   29.0700   67.3060   15.1870 F   0  0  0  0  0  0  0  0  0  0  0  0
   30.6720   69.6170   16.4790 C   0  0  0  0  0  0  0  0  0  0  0  0
   30.6370   70.9150   16.9580 C   0  0  0  0  0  0  0  0  0  0  0  0
   31.3600   71.2580   18.5240 Cl  0  0  0  0  0  0  0  0  0  0  0  0
   30.1920   76.4880   15.4510 C   0  0  0  0  0  0  0  0  0  0  0  0
   30.3800   77.8430   15.7090 C   0  0  0  0  0  0  0  0  0  0  0  0
   31.1830   78.2260   16.7720 C   0  0  0  0  0  0  0  0  0  0  0  0
   31.3530   79.5120   17.0280 F   0  0  0  0  0  0  0  0  0  0  0  0
   32.9910   76.2850   19.5900 C   0  0  0  0  0  0  0  0  0  0  0  0
   31.7430   75.7370   20.0650 O   0  0  0  0  0  0  0  0  0  0  0  0
   30.9460   76.5090   20.9700 C   0  0  1  0  0  0  0  0  0  0  0  0
   29.4660   76.0550   20.7500 C   0  0  0  0  0  0  0  0  0  0  0  0
   31.4740   76.1270   22.3630 C   0  0  0  0  0  0  0  0  0  0  0  0
   32.4940   76.9590   22.6570 F   0  0  0  0  0  0  0  0  0  0  0  0
   30.4770   76.3480   23.2670 F   0  0  0  0  0  0  0  0  0  0  0  0
   31.9030   74.8420   22.3750 F   0  0  0  0  0  0  0  0  0  0  0  0
   31.1350   78.0160   20.7020 C   0  0  0  0  0  0  0  0  0  0  0  0
   30.5060   78.8920   21.4680 N   0  0  0  0  0  0  0  0  0  0  0  0
   31.8610   78.4880   19.7570 N   0  0  0  0  0  0  0  0  0  0  0  0
   34.4378   78.7324   19.2758 H   0  0  0  0  0  0  0  0  0  0  0  0
   34.5133   77.7214   17.7929 H   0  0  0  0  0  0  0  0  0  0  0  0
   33.5640   79.2464   17.7929 H   0  0  0  0  0  0  0  0  0  0  0  0
   31.4760   73.7600   15.4830 H   0  0  0  0  0  0  0  0  0  0  0  0
   28.9819   70.1690   13.5719 H   0  0  0  0  0  0  0  0  0  0  0  0
   31.1537   68.8108   17.0517 H   0  0  0  0  0  0  0  0  0  0  0  0
   29.5540   76.1508   14.6208 H   0  0  0  0  0  0  0  0  0  0  0  0
   29.8965   78.6017   15.0761 H   0  0  0  0  0  0  0  0  0  0  0  0
   33.4765   75.5877   18.8914 H   0  0  0  0  0  0  0  0  0  0  0  0
   33.7008   76.4591   20.4121 H   0  0  0  0  0  0  0  0  0  0  0  0
   28.9794   75.9057   21.7252 H   0  0  0  0  0  0  0  0  0  0  0  0
   28.9253   76.8286   20.1850 H   0  0  0  0  0  0  0  0  0  0  0  0
   29.4521   75.1113   20.1850 H   0  0  0  0  0  0  0  0  0  0  0  0
   30.2768   78.0013   20.0141 H   0  0  0  0  0  0  0  0  0  0  0  0
   31.1160   79.7060   21.6310 H   0  0  0  0  0  0  0  0  0  0  0  0
   29.6410   79.1980   21.0010 H   0  0  0  0  0  0  0  0  0  0  0  0
   32.5510   79.1120   20.2000 H   0  0  0  0  0  0  0  0  0  0  0  0
  2  1  1  6
  2  3  1  0
  3  4  1  0
  4  5  2  0
  5  6  1  0
  6  7  1  0
  7  8  2  0
  7  9  1  0
  9 10  1  0
 10 11  2  0
 11 12  1  0
 12 13  1  0
 13 14  1  0
 13 15  1  0
 13 16  1  0
 12 17  2  0
 17 18  1  0
 18 19  1  0
  5 20  1  0
 20 21  2  0
 21 22  1  0
 22 23  1  0
  2 24  1  0
 24 25  1  0
 25 26  1  0
 26 27  1  1
 26 28  1  0
 28 29  1  0
 28 30  1  0
 28 31  1  0
 26 32  1  0
 32 33  1  0
 32 34  1  0
 34  2  1  0
 22  3  2  0
 18  9  2  0
  1 35  1  0
  1 36  1  0
  1 37  1  0
  6 38  1  0
 11 39  1  0
 17 40  1  0
 20 41  1  0
 21 42  1  0
 24 43  1  0
 24 44  1  0
 27 45  1  0
 27 46  1  0
 27 47  1  0
 32 48  1  0
 33 49  1  0
 33 50  1  0
 34 51  1  0
M  END
>  <meeko>  (7) 
{"is_sidechain": [false], "free_energy": -8.232, "intermolecular_energy": -10.663, "internal_energy": -0.73}

$$$$
6EQM_unknown_cid_out
     RDKit          3D

 51 53  0  0  0  0  0  0  0  0999 V2000
   28.3530   69.8600   16.8760 C   0  0  0  0  0  0  0  0  0  0  0  0
   29.5750   70.7990   17.1130 C   0  0  1  0  0  0  0  0  0  0  0  0
   29.3810   71.5310   18.4470 C   0  0  0  0  0  0  0  0  0  0  0  0
   29.3270   72.8710   18.4410 N   0  0  0  0  0  0  0  0  0  0  0  0
   29.1930   73.6070   19.5370 C   0  0  0  0  0  0  0  0  0  0  0  0
   29.2060   74.9940   19.3510 N   0  0  0  0  0  0  0  0  0  0  0  0
   30.2010   75.8460   19.6120 C   0  0  0  0  0  0  0  0  0  0  0  0
   31.2530   75.5570   20.1750 O   0  0  0  0  0  0  0  0  0  0  0  0
   29.9680   77.2640   19.2470 C   0  0  0  0  0  0  0  0  0  0  0  0
   30.3360   77.6000   17.9960 N   0  0  0  0  0  0  0  0  0  0  0  0
   30.1770   78.8530   17.5660 C   0  0  0  0  0  0  0  0  0  0  0  0
   29.6210   79.8220   18.3810 C   0  0  0  0  0  0  0  0  0  0  0  0
   29.4490   81.2090   17.8460 C   0  0  0  0  0  0  0  0  0  0  0  0
   29.1130   81.1680   16.5560 F   0  0  0  0  0  0  0  0  0  0  0  0
   28.5400   81.9070   18.5460 F   0  0  0  0  0  0  0  0  0  0  0  0
   30.6470   81.8140   17.8920 F   0  0  0  0  0  0  0  0  0  0  0  0
   29.2230   79.5130   19.6850 C   0  0  0  0  0  0  0  0  0  0  0  0
   29.3900   78.2070   20.1120 C   0  0  0  0  0  0  0  0  0  0  0  0
   28.9220   77.7900   21.7560 Cl  0  0  0  0  0  0  0  0  0  0  0  0
   28.9980   73.0020   20.7990 C   0  0  0  0  0  0  0  0  0  0  0  0
   29.0470   71.6120   20.8670 C   0  0  0  0  0  0  0  0  0  0  0  0
   29.2720   70.8850   19.7090 C   0  0  0  0  0  0  0  0  0  0  0  0
   29.3050   69.5640   19.7680 F   0  0  0  0  0  0  0  0  0  0  0  0
   30.9010   70.0100   17.1670 C   0  0  0  0  0  0  0  0  0  0  0  0
   31.9370   71.0090   17.2700 O   0  0  0  0  0  0  0  0  0  0  0  0
   32.0620   71.9890   16.2330 C   0  0  1  0  0  0  0  0  0  0  0  0
   32.6970   73.2540   16.8970 C   0  0  0  0  0  0  0  0  0  0  0  0
   33.0010   71.3360   15.2050 C   0  0  0  0  0  0  0  0  0  0  0  0
   33.9150   70.6140   15.8860 F   0  0  0  0  0  0  0  0  0  0  0  0
   32.2640   70.4750   14.4480 F   0  0  0  0  0  0  0  0  0  0  0  0
   33.6200   72.2800   14.4550 F   0  0  0  0  0  0  0  0  0  0  0  0
   30.6850   72.2920   15.6090 C   0  0  0  0  0  0  0  0  0  0  0  0
   30.6050   73.1470   14.6030 N   0  0  0  0  0  0  0  0  0  0  0  0
   29.5860   71.7740   16.0180 N   0  0  0  0  0  0  0  0  0  0  0  0
   27.9406   69.5431   17.8453 H   0  0  0  0  0  0  0  0  0  0  0  0
   27.5809   70.3994   16.3077 H   0  0  0  0  0  0  0  0  0  0  0  0
   28.6754   68.9750   16.3077 H   0  0  0  0  0  0  0  0  0  0  0  0
   28.3450   75.4080   18.9670 H   0  0  0  0  0  0  0  0  0  0  0  0
   30.4933   79.1195   16.5467 H   0  0  0  0  0  0  0  0  0  0  0  0
   28.7932   80.2792   20.3470 H   0  0  0  0  0  0  0  0  0  0  0  0
   28.8136   73.6088   21.6978 H   0  0  0  0  0  0  0  0  0  0  0  0
   28.9087   71.0969   21.8291 H   0  0  0  0  0  0  0  0  0  0  0  0
   30.9182   69.3458   18.0437 H   0  0  0  0  0  0  0  0  0  0  0  0
   31.0341   69.3723   16.2806 H   0  0  0  0  0  0  0  0  0  0  0  0
   32.6483   73.1570   17.9916 H   0  0  0  0  0  0  0  0  0  0  0  0
   33.7474   73.3446   16.5833 H   0  0  0  0  0  0  0  0  0  0  0  0
   32.1420   74.1504   16.5833 H   0  0  0  0  0  0  0  0  0  0  0  0
   30.5436   73.1176   16.3220 H   0  0  0  0  0  0  0  0  0  0  0  0
   29.7250   73.6770   14.6730 H   0  0  0  0  0  0  0  0  0  0  0  0
   31.4030   73.7980   14.6430 H   0  0  0  0  0  0  0  0  0  0  0  0
   29.1610   71.3060   15.2040 H   0  0  0  0  0  0  0  0  0  0  0  0
  2  1  1  6
  2  3  1  0
  3  4  1  0
  4  5  2  0
  5  6  1  0
  6  7  1  0
  7  8  2  0
  7  9  1  0
  9 10  1  0
 10 11  2  0
 11 12  1  0
 12 13  1  0
 13 14  1  0
 13 15  1  0
 13 16  1  0
 12 17  2  0
 17 18  1  0
 18 19  1  0
  5 20  1  0
 20 21  2  0
 21 22  1  0
 22 23  1  0
  2 24  1  0
 24 25  1  0
 25 26  1  0
 26 27  1  1
 26 28  1  0
 28 29  1  0
 28 30  1  0
 28 31  1  0
 26 32  1  0
 32 33  1  0
 32 34  1  0
 34  2  1  0
 22  3  2  0
 18  9  2  0
  1 35  1  0
  1 36  1  0
  1 37  1  0
  6 38  1  0
 11 39  1  0
 17 40  1  0
 20 41  1  0
 21 42  1  0
 24 43  1  0
 24 44  1  0
 27 45  1  0
 27 46  1  0
 27 47  1  0
 32 48  1  0
 33 49  1  0
 33 50  1  0
 34 51  1  0
M  END
>  <meeko>  (8) 
{"is_sidechain": [false], "free_energy": -8.175, "intermolecular_energy": -10.307, "internal_energy": -1.011}

$$$$
6EQM_unknown_cid_out
     RDKit          3D

 51 53  0  0  0  0  0  0  0  0999 V2000
   28.6210   78.4970   20.7710 C   0  0  0  0  0  0  0  0  0  0  0  0
   30.0190   77.9770   20.3190 C   0  0  1  0  0  0  0  0  0  0  0  0
   30.2310   76.5710   20.8950 C   0  0  0  0  0  0  0  0  0  0  0  0
   30.2060   75.5240   20.0570 N   0  0  0  0  0  0  0  0  0  0  0  0
   30.3470   74.2640   20.4480 C   0  0  0  0  0  0  0  0  0  0  0  0
   30.2440   73.2930   19.4450 N   0  0  0  0  0  0  0  0  0  0  0  0
   29.1630   72.9610   18.7350 C   0  0  0  0  0  0  0  0  0  0  0  0
   28.0280   73.3870   18.9280 O   0  0  0  0  0  0  0  0  0  0  0  0
   29.3560   71.9400   17.6770 C   0  0  0  0  0  0  0  0  0  0  0  0
   28.8090   70.7370   17.9370 N   0  0  0  0  0  0  0  0  0  0  0  0
   28.9290   69.7440   17.0550 C   0  0  0  0  0  0  0  0  0  0  0  0
   29.5970   69.9290   15.8580 C   0  0  0  0  0  0  0  0  0  0  0  0
   29.6890   68.7870   14.8950 C   0  0  0  0  0  0  0  0  0  0  0  0
   30.9650   68.5180   14.6180 F   0  0  0  0  0  0  0  0  0  0  0  0
   29.0680   67.6890   15.3580 F   0  0  0  0  0  0  0  0  0  0  0  0
   29.1400   69.1870   13.7360 F   0  0  0  0  0  0  0  0  0  0  0  0
   30.1750   71.1630   15.5490 C   0  0  0  0  0  0  0  0  0  0  0  0
   30.0370   72.1840   16.4730 C   0  0  0  0  0  0  0  0  0  0  0  0
   30.7740   73.7430   16.1270 Cl  0  0  0  0  0  0  0  0  0  0  0  0
   30.6350   73.9500   21.7950 C   0  0  0  0  0  0  0  0  0  0  0  0
   30.6700   74.9970   22.7130 C   0  0  0  0  0  0  0  0  0  0  0  0
   30.4360   76.2900   22.2740 C   0  0  0  0  0  0  0  0  0  0  0  0
   30.4820   77.2890   23.1400 F   0  0  0  0  0  0  0  0  0  0  0  0
   30.1350   77.9070   18.7810 C   0  0  0  0  0  0  0  0  0  0  0  0
   31.5030   77.5290   18.5160 O   0  0  0  0  0  0  0  0  0  0  0  0
   32.5590   78.3730   18.9880 C   0  0  1  0  0  0  0  0  0  0  0  0
   33.8000   77.4460   19.2010 C   0  0  0  0  0  0  0  0  0  0  0  0
   32.7750   79.3850   17.8500 C   0  0  0  0  0  0  0  0  0  0  0  0
   34.0670   79.7710   17.8850 F   0  0  0  0  0  0  0  0  0  0  0  0
   32.5610   78.7410   16.6680 F   0  0  0  0  0  0  0  0  0  0  0  0
   31.9630   80.4590   18.0050 F   0  0  0  0  0  0  0  0  0  0  0  0
   32.1390   79.0860   20.2890 C   0  0  0  0  0  0  0  0  0  0  0  0
   32.9740   79.9420   20.8550 N   0  0  0  0  0  0  0  0  0  0  0  0
   31.0190   78.8900   20.8820 N   0  0  0  0  0  0  0  0  0  0  0  0
   28.5740   78.5145   21.8699 H   0  0  0  0  0  0  0  0  0  0  0  0
   28.4643   79.5136   20.3811 H   0  0  0  0  0  0  0  0  0  0  0  0
   27.8380   77.8300   20.3811 H   0  0  0  0  0  0  0  0  0  0  0  0
   31.1060   72.7730   19.2290 H   0  0  0  0  0  0  0  0  0  0  0  0
   28.4896   68.7617   17.2831 H   0  0  0  0  0  0  0  0  0  0  0  0
   30.7197   71.3173   14.6059 H   0  0  0  0  0  0  0  0  0  0  0  0
   30.8253   72.9129   22.1085 H   0  0  0  0  0  0  0  0  0  0  0  0
   30.8810   74.7995   23.7743 H   0  0  0  0  0  0  0  0  0  0  0  0
   29.4425   77.1539   18.3768 H   0  0  0  0  0  0  0  0  0  0  0  0
   29.8766   78.8656   18.3074 H   0  0  0  0  0  0  0  0  0  0  0  0
   33.9778   77.3132   20.2784 H   0  0  0  0  0  0  0  0  0  0  0  0
   33.6101   76.4668   18.7372 H   0  0  0  0  0  0  0  0  0  0  0  0
   34.6851   77.9059   18.7372 H   0  0  0  0  0  0  0  0  0  0  0  0
   32.5778   78.2679   20.8790 H   0  0  0  0  0  0  0  0  0  0  0  0
   33.8530   79.9680   20.3200 H   0  0  0  0  0  0  0  0  0  0  0  0
   32.5490   80.8800   20.8660 H   0  0  0  0  0  0  0  0  0  0  0  0
   30.5630   79.8110   20.9600 H   0  0  0  0  0  0  0  0  0  0  0  0
  2  1  1  6
  2  3  1  0
  3  4  1  0
  4  5  2  0
  5  6  1  0
  6  7  1  0
  7  8  2  0
  7  9  1  0
  9 10  1  0
 10 11  2  0
 11 12  1  0
 12 13  1  0
 13 14  1  0
 13 15  1  0
 13 16  1  0
 12 17  2  0
 17 18  1  0
 18 19  1  0
  5 20  1  0
 20 21  2  0
 21 22  1  0
 22 23  1  0
  2 24  1  0
 24 25  1  0
 25 26  1  0
 26 27  1  1
 26 28  1  0
 28 29  1  0
 28 30  1  0
 28 31  1  0
 26 32  1  0
 32 33  1  0
 32 34  1  0
 34  2  1  0
 22  3  2  0
 18  9  2  0
  1 35  1  0
  1 36  1  0
  1 37  1  0
  6 38  1  0
 11 39  1  0
 17 40  1  0
 20 41  1  0
 21 42  1  0
 24 43  1  0
 24 44  1  0
 27 45  1  0
 27 46  1  0
 27 47  1  0
 32 48  1  0
 33 49  1  0
 33 50  1  0
 34 51  1  0
M  END
>  <meeko>  (9) 
{"is_sidechain": [false], "free_energy": -8.152, "intermolecular_energy": -10.566, "internal_energy": -0.721}

$$$$
