Arctigenin_64981_out
     RDKit          3D

 51 53  0  0  0  0  0  0  0  0999 V2000
   30.0730   72.4370   16.6750 C   0  0  0  0  0  0  0  0  0  0  0  0
   29.1920   73.4880   17.0680 O   0  0  0  0  0  0  0  0  0  0  0  0
   29.2440   73.8850   18.3700 C   0  0  0  0  0  0  0  0  0  0  0  0
   30.4310   74.4100   18.8810 C   0  0  0  0  0  0  0  0  0  0  0  0
   30.4830   74.8120   20.2070 C   0  0  0  0  0  0  0  0  0  0  0  0
   31.7660   75.3810   20.7590 C   0  0  0  0  0  0  0  0  0  0  0  0
   31.5620   76.7660   21.3580 C   0  0  1  0  0  0  0  0  0  0  0  0
   32.8870   77.3240   21.8130 C   0  0  0  0  0  0  0  0  0  0  0  0
   33.4980   76.9740   22.8120 O   0  0  0  0  0  0  0  0  0  0  0  0
   33.3300   78.2650   20.9270 O   0  0  0  0  0  0  0  0  0  0  0  0
   32.4260   78.3500   19.8200 C   0  0  0  0  0  0  0  0  0  0  0  0
   31.1100   77.7990   20.3310 C   0  0  2  0  0  0  0  0  0  0  0  0
   30.2720   78.9000   20.9850 C   0  0  0  0  0  0  0  0  0  0  0  0
   29.1920   79.4070   20.0640 C   0  0  0  0  0  0  0  0  0  0  0  0
   27.8670   79.3450   20.4680 C   0  0  0  0  0  0  0  0  0  0  0  0
   26.8680   79.8140   19.6150 C   0  0  0  0  0  0  0  0  0  0  0  0
   27.2050   80.3400   18.3690 C   0  0  0  0  0  0  0  0  0  0  0  0
   26.2200   80.7940   17.5440 O   0  0  0  0  0  0  0  0  0  0  0  0
   25.3620   79.8160   16.9590 C   0  0  0  0  0  0  0  0  0  0  0  0
   28.5430   80.3970   17.9730 C   0  0  0  0  0  0  0  0  0  0  0  0
   28.8830   80.9070   16.7580 O   0  0  0  0  0  0  0  0  0  0  0  0
   30.2700   81.1260   16.5120 C   0  0  0  0  0  0  0  0  0  0  0  0
   29.5410   79.9270   18.8260 C   0  0  0  0  0  0  0  0  0  0  0  0
   29.3760   74.7010   21.0350 C   0  0  0  0  0  0  0  0  0  0  0  0
   28.1890   74.1770   20.5230 C   0  0  0  0  0  0  0  0  0  0  0  0
   28.1230   73.7680   19.1930 C   0  0  0  0  0  0  0  0  0  0  0  0
   26.9580   73.2550   18.7050 O   0  0  0  0  0  0  0  0  0  0  0  0
   30.4830   71.9479   17.5710 H   0  0  0  0  0  0  0  0  0  0  0  0
   29.5194   71.6994   16.0755 H   0  0  0  0  0  0  0  0  0  0  0  0
   30.8960   72.8533   16.0755 H   0  0  0  0  0  0  0  0  0  0  0  0
   31.3182   74.5043   18.2376 H   0  0  0  0  0  0  0  0  0  0  0  0
   32.1459   74.7076   21.5415 H   0  0  0  0  0  0  0  0  0  0  0  0
   32.4834   75.4706   19.9300 H   0  0  0  0  0  0  0  0  0  0  0  0
   30.8166   76.6226   22.1541 H   0  0  0  0  0  0  0  0  0  0  0  0
   32.3070   79.3956   19.4999 H   0  0  0  0  0  0  0  0  0  0  0  0
   32.7933   77.7886   18.9482 H   0  0  0  0  0  0  0  0  0  0  0  0
   30.4709   77.3789   19.5404 H   0  0  0  0  0  0  0  0  0  0  0  0
   29.8031   78.4969   21.8948 H   0  0  0  0  0  0  0  0  0  0  0  0
   30.9400   79.7411   21.2222 H   0  0  0  0  0  0  0  0  0  0  0  0
   27.6060   78.9296   21.4525 H   0  0  0  0  0  0  0  0  0  0  0  0
   25.8138   79.7687   19.9258 H   0  0  0  0  0  0  0  0  0  0  0  0
   24.8610   79.2449   17.7545 H   0  0  0  0  0  0  0  0  0  0  0  0
   24.6065   80.3168   16.3357 H   0  0  0  0  0  0  0  0  0  0  0  0
   25.9569   79.1322   16.3357 H   0  0  0  0  0  0  0  0  0  0  0  0
   30.8035   81.2102   17.4703 H   0  0  0  0  0  0  0  0  0  0  0  0
   30.6784   80.2812   15.9380 H   0  0  0  0  0  0  0  0  0  0  0  0
   30.3983   82.0555   15.9380 H   0  0  0  0  0  0  0  0  0  0  0  0
   30.5967   79.9682   18.5197 H   0  0  0  0  0  0  0  0  0  0  0  0
   29.4335   75.0230   22.0852 H   0  0  0  0  0  0  0  0  0  0  0  0
   27.3041   74.0867   21.1702 H   0  0  0  0  0  0  0  0  0  0  0  0
   26.8600   72.2770   18.5860 H   0  0  0  0  0  0  0  0  0  0  0  0
  1  2  1  0
  2  3  1  0
  3  4  1  0
  4  5  2  0
  5  6  1  0
  6  7  1  0
  7  8  1  0
  8  9  2  0
  8 10  1  0
 10 11  1  0
 11 12  1  0
 12 13  1  0
 13 14  1  0
 14 15  1  0
 15 16  2  0
 16 17  1  0
 17 18  1  0
 18 19  1  0
 17 20  2  0
 20 21  1  0
 21 22  1  0
 20 23  1  0
  5 24  1  0
 24 25  2  0
 25 26  1  0
 26 27  1  0
 26  3  2  0
 12  7  1  0
 23 14  2  0
  1 28  1  0
  1 29  1  0
  1 30  1  0
  4 31  1  0
  6 32  1  0
  6 33  1  0
  7 34  1  1
 11 35  1  0
 11 36  1  0
 12 37  1  6
 13 38  1  0
 13 39  1  0
 15 40  1  0
 16 41  1  0
 19 42  1  0
 19 43  1  0
 19 44  1  0
 22 45  1  0
 22 46  1  0
 22 47  1  0
 23 48  1  0
 24 49  1  0
 25 50  1  0
 27 51  1  0
M  END
>  <meeko>  (1) 
{"is_sidechain": [false], "free_energy": -7.293, "intermolecular_energy": -10.49, "internal_energy": -1.307}

$$$$
Arctigenin_64981_out
     RDKit          3D

 51 53  0  0  0  0  0  0  0  0999 V2000
   28.0780   72.0010   19.5310 C   0  0  0  0  0  0  0  0  0  0  0  0
   28.9230   71.7160   20.6440 O   0  0  0  0  0  0  0  0  0  0  0  0
   29.7140   72.7300   21.0960 C   0  0  0  0  0  0  0  0  0  0  0  0
   30.7960   73.1520   20.3240 C   0  0  0  0  0  0  0  0  0  0  0  0
   31.6000   74.1830   20.7860 C   0  0  0  0  0  0  0  0  0  0  0  0
   32.7700   74.6400   19.9510 C   0  0  0  0  0  0  0  0  0  0  0  0
   32.5800   74.3080   18.4780 C   0  0  1  0  0  0  0  0  0  0  0  0
   32.2680   75.5670   17.7080 C   0  0  0  0  0  0  0  0  0  0  0  0
   31.1990   76.1570   17.7190 O   0  0  0  0  0  0  0  0  0  0  0  0
   33.3700   75.9770   17.0100 O   0  0  0  0  0  0  0  0  0  0  0  0
   34.4770   75.1180   17.3070 C   0  0  0  0  0  0  0  0  0  0  0  0
   33.8620   73.8260   17.8060 C   0  0  2  0  0  0  0  0  0  0  0  0
   33.5550   72.8800   16.6420 C   0  0  0  0  0  0  0  0  0  0  0  0
   32.5580   71.8180   17.0280 C   0  0  0  0  0  0  0  0  0  0  0  0
   32.9100   70.8610   17.9670 C   0  0  0  0  0  0  0  0  0  0  0  0
   31.9870   69.8780   18.3240 C   0  0  0  0  0  0  0  0  0  0  0  0
   30.7220   69.8650   17.7390 C   0  0  0  0  0  0  0  0  0  0  0  0
   29.8290   68.8990   18.0940 O   0  0  0  0  0  0  0  0  0  0  0  0
   29.8410   68.4730   19.4550 C   0  0  0  0  0  0  0  0  0  0  0  0
   30.3790   70.8330   16.7940 C   0  0  0  0  0  0  0  0  0  0  0  0
   29.1470   70.8290   16.2150 O   0  0  0  0  0  0  0  0  0  0  0  0
   29.0950   70.6500   14.8020 C   0  0  0  0  0  0  0  0  0  0  0  0
   31.3020   71.8150   16.4370 C   0  0  0  0  0  0  0  0  0  0  0  0
   31.3480   74.8020   22.0010 C   0  0  0  0  0  0  0  0  0  0  0  0
   30.2650   74.3800   22.7720 C   0  0  0  0  0  0  0  0  0  0  0  0
   29.4490   73.3440   22.3200 C   0  0  0  0  0  0  0  0  0  0  0  0
   28.3950   72.9390   23.0840 O   0  0  0  0  0  0  0  0  0  0  0  0
   27.0939   72.3329   19.8933 H   0  0  0  0  0  0  0  0  0  0  0  0
   28.5312   72.7960   18.9206 H   0  0  0  0  0  0  0  0  0  0  0  0
   27.9572   71.0939   18.9206 H   0  0  0  0  0  0  0  0  0  0  0  0
   31.0096   72.6716   19.3578 H   0  0  0  0  0  0  0  0  0  0  0  0
   32.8799   75.7292   20.0588 H   0  0  0  0  0  0  0  0  0  0  0  0
   33.6684   74.1137   20.3060 H   0  0  0  0  0  0  0  0  0  0  0  0
   31.7912   73.5415   18.4604 H   0  0  0  0  0  0  0  0  0  0  0  0
   35.0755   74.9350   16.4024 H   0  0  0  0  0  0  0  0  0  0  0  0
   35.1521   75.5640   18.0522 H   0  0  0  0  0  0  0  0  0  0  0  0
   34.5198   73.2556   18.4783 H   0  0  0  0  0  0  0  0  0  0  0  0
   33.1446   73.4660   15.8064 H   0  0  0  0  0  0  0  0  0  0  0  0
   34.4912   72.3796   16.3538 H   0  0  0  0  0  0  0  0  0  0  0  0
   33.9091   70.8766   18.4269 H   0  0  0  0  0  0  0  0  0  0  0  0
   32.2574   69.1133   19.0670 H   0  0  0  0  0  0  0  0  0  0  0  0
   29.8162   69.3528   20.1148 H   0  0  0  0  0  0  0  0  0  0  0  0
   28.9602   67.8435   19.6500 H   0  0  0  0  0  0  0  0  0  0  0  0
   30.7558   67.8941   19.6500 H   0  0  0  0  0  0  0  0  0  0  0  0
   28.7948   69.6166   14.5741 H   0  0  0  0  0  0  0  0  0  0  0  0
   28.3625   71.3482   14.3707 H   0  0  0  0  0  0  0  0  0  0  0  0
   30.0875   70.8471   14.3707 H   0  0  0  0  0  0  0  0  0  0  0  0
   31.0372   72.5810   15.6933 H   0  0  0  0  0  0  0  0  0  0  0  0
   31.9960   75.6180   22.3534 H   0  0  0  0  0  0  0  0  0  0  0  0
   30.0547   74.8647   23.7368 H   0  0  0  0  0  0  0  0  0  0  0  0
   27.6280   73.5480   23.2300 H   0  0  0  0  0  0  0  0  0  0  0  0
  1  2  1  0
  2  3  1  0
  3  4  1  0
  4  5  2  0
  5  6  1  0
  6  7  1  0
  7  8  1  0
  8  9  2  0
  8 10  1  0
 10 11  1  0
 11 12  1  0
 12 13  1  0
 13 14  1  0
 14 15  1  0
 15 16  2  0
 16 17  1  0
 17 18  1  0
 18 19  1  0
 17 20  2  0
 20 21  1  0
 21 22  1  0
 20 23  1  0
  5 24  1  0
 24 25  2  0
 25 26  1  0
 26 27  1  0
 26  3  2  0
 12  7  1  0
 23 14  2  0
  1 28  1  0
  1 29  1  0
  1 30  1  0
  4 31  1  0
  6 32  1  0
  6 33  1  0
  7 34  1  1
 11 35  1  0
 11 36  1  0
 12 37  1  1
 13 38  1  0
 13 39  1  0
 15 40  1  0
 16 41  1  0
 19 42  1  0
 19 43  1  0
 19 44  1  0
 22 45  1  0
 22 46  1  0
 22 47  1  0
 23 48  1  0
 24 49  1  0
 25 50  1  0
 27 51  1  0
M  END
>  <meeko>  (2) 
{"is_sidechain": [false], "free_energy": -7.148, "intermolecular_energy": -9.573, "internal_energy": -2.016}

$$$$
Arctigenin_64981_out
     RDKit          3D

 51 53  0  0  0  0  0  0  0  0999 V2000
   29.8270   79.1250   20.8900 C   0  0  0  0  0  0  0  0  0  0  0  0
   31.0850   78.9190   21.5300 O   0  0  0  0  0  0  0  0  0  0  0  0
   31.3860   77.6450   21.9080 C   0  0  0  0  0  0  0  0  0  0  0  0
   30.3770   76.6820   21.9370 C   0  0  0  0  0  0  0  0  0  0  0  0
   30.6850   75.3860   22.3230 C   0  0  0  0  0  0  0  0  0  0  0  0
   29.5940   74.3450   22.3540 C   0  0  0  0  0  0  0  0  0  0  0  0
   29.9610   73.1130   21.5390 C   0  0  1  0  0  0  0  0  0  0  0  0
   28.8220   72.1250   21.5670 C   0  0  0  0  0  0  0  0  0  0  0  0
   28.5220   71.4160   22.5160 O   0  0  0  0  0  0  0  0  0  0  0  0
   28.1450   72.1550   20.3790 O   0  0  0  0  0  0  0  0  0  0  0  0
   28.6960   73.1710   19.5350 C   0  0  0  0  0  0  0  0  0  0  0  0
   30.1030   73.4040   20.0490 C   0  0  2  0  0  0  0  0  0  0  0  0
   31.0930   72.4430   19.3870 C   0  0  0  0  0  0  0  0  0  0  0  0
   32.2320   73.1760   18.7250 C   0  0  0  0  0  0  0  0  0  0  0  0
   32.8960   72.5860   17.6610 C   0  0  0  0  0  0  0  0  0  0  0  0
   33.9500   73.2650   17.0490 C   0  0  0  0  0  0  0  0  0  0  0  0
   34.3260   74.5260   17.5070 C   0  0  0  0  0  0  0  0  0  0  0  0
   35.3580   75.1790   16.9030 O   0  0  0  0  0  0  0  0  0  0  0  0
   35.0680   75.8640   15.6850 C   0  0  0  0  0  0  0  0  0  0  0  0
   33.6500   75.1100   18.5800 C   0  0  0  0  0  0  0  0  0  0  0  0
   34.0100   76.3410   19.0360 O   0  0  0  0  0  0  0  0  0  0  0  0
   33.1630   77.4340   18.6890 C   0  0  0  0  0  0  0  0  0  0  0  0
   32.5970   74.4310   19.1920 C   0  0  0  0  0  0  0  0  0  0  0  0
   31.9770   75.0300   22.6800 C   0  0  0  0  0  0  0  0  0  0  0  0
   32.9850   75.9930   22.6490 C   0  0  0  0  0  0  0  0  0  0  0  0
   32.6900   77.3000   22.2640 C   0  0  0  0  0  0  0  0  0  0  0  0
   33.6830   78.2330   22.2400 O   0  0  0  0  0  0  0  0  0  0  0  0
   29.0444   79.2532   21.6523 H   0  0  0  0  0  0  0  0  0  0  0  0
   29.8784   80.0267   20.2621 H   0  0  0  0  0  0  0  0  0  0  0  0
   29.5881   78.2540   20.2621 H   0  0  0  0  0  0  0  0  0  0  0  0
   29.3472   76.9480   21.6564 H   0  0  0  0  0  0  0  0  0  0  0  0
   29.4208   74.0425   23.3973 H   0  0  0  0  0  0  0  0  0  0  0  0
   28.6883   74.7875   21.9136 H   0  0  0  0  0  0  0  0  0  0  0  0
   30.9023   72.7533   21.9800 H   0  0  0  0  0  0  0  0  0  0  0  0
   28.7200   72.8310   18.4892 H   0  0  0  0  0  0  0  0  0  0  0  0
   28.0948   74.0919   19.5584 H   0  0  0  0  0  0  0  0  0  0  0  0
   30.4907   74.4112   19.8361 H   0  0  0  0  0  0  0  0  0  0  0  0
   31.5020   71.7695   20.1546 H   0  0  0  0  0  0  0  0  0  0  0  0
   30.5538   71.8797   18.6112 H   0  0  0  0  0  0  0  0  0  0  0  0
   32.5945   71.5908   17.3021 H   0  0  0  0  0  0  0  0  0  0  0  0
   34.4842   72.8047   16.2048 H   0  0  0  0  0  0  0  0  0  0  0  0
   34.6484   76.8550   15.9126 H   0  0  0  0  0  0  0  0  0  0  0  0
   35.9931   75.9826   15.1018 H   0  0  0  0  0  0  0  0  0  0  0  0
   34.3389   75.2823   15.1018 H   0  0  0  0  0  0  0  0  0  0  0  0
   32.7905   77.9146   19.6057 H   0  0  0  0  0  0  0  0  0  0  0  0
   33.7324   78.1655   18.0968 H   0  0  0  0  0  0  0  0  0  0  0  0
   32.3125   77.0652   18.0968 H   0  0  0  0  0  0  0  0  0  0  0  0
   32.0603   74.8860   20.0375 H   0  0  0  0  0  0  0  0  0  0  0  0
   32.2044   73.9978   22.9847 H   0  0  0  0  0  0  0  0  0  0  0  0
   34.0136   75.7212   22.9285 H   0  0  0  0  0  0  0  0  0  0  0  0
   33.4660   79.1900   22.3650 H   0  0  0  0  0  0  0  0  0  0  0  0
  1  2  1  0
  2  3  1  0
  3  4  1  0
  4  5  2  0
  5  6  1  0
  6  7  1  0
  7  8  1  0
  8  9  2  0
  8 10  1  0
 10 11  1  0
 11 12  1  0
 12 13  1  0
 13 14  1  0
 14 15  1  0
 15 16  2  0
 16 17  1  0
 17 18  1  0
 18 19  1  0
 17 20  2  0
 20 21  1  0
 21 22  1  0
 20 23  1  0
  5 24  1  0
 24 25  2  0
 25 26  1  0
 26 27  1  0
 26  3  2  0
 12  7  1  0
 23 14  2  0
  1 28  1  0
  1 29  1  0
  1 30  1  0
  4 31  1  0
  6 32  1  0
  6 33  1  0
  7 34  1  1
 11 35  1  0
 11 36  1  0
 12 37  1  1
 13 38  1  0
 13 39  1  0
 15 40  1  0
 16 41  1  0
 19 42  1  0
 19 43  1  0
 19 44  1  0
 22 45  1  0
 22 46  1  0
 22 47  1  0
 23 48  1  0
 24 49  1  0
 25 50  1  0
 27 51  1  0
M  END
>  <meeko>  (3) 
{"is_sidechain": [false], "free_energy": -7.145, "intermolecular_energy": -9.54, "internal_energy": -2.045}

$$$$
Arctigenin_64981_out
     RDKit          3D

 51 53  0  0  0  0  0  0  0  0999 V2000
   31.5470   74.8390   14.6400 C   0  0  0  0  0  0  0  0  0  0  0  0
   30.3100   74.5590   15.2940 O   0  0  0  0  0  0  0  0  0  0  0  0
   30.3540   74.3540   16.6400 C   0  0  0  0  0  0  0  0  0  0  0  0
   30.9440   75.3140   17.4610 C   0  0  0  0  0  0  0  0  0  0  0  0
   30.9890   75.1030   18.8320 C   0  0  0  0  0  0  0  0  0  0  0  0
   31.6270   76.1410   19.7200 C   0  0  0  0  0  0  0  0  0  0  0  0
   30.6160   76.7850   20.6580 C   0  0  1  0  0  0  0  0  0  0  0  0
   31.0440   76.5790   22.0890 C   0  0  0  0  0  0  0  0  0  0  0  0
   30.9610   75.5300   22.7090 O   0  0  0  0  0  0  0  0  0  0  0  0
   31.5720   77.7350   22.5920 O   0  0  0  0  0  0  0  0  0  0  0  0
   31.6160   78.7340   21.5670 C   0  0  0  0  0  0  0  0  0  0  0  0
   30.5820   78.3060   20.5440 C   0  0  2  0  0  0  0  0  0  0  0  0
   29.1990   78.8580   20.9000 C   0  0  0  0  0  0  0  0  0  0  0  0
   28.4090   79.2290   19.6710 C   0  0  0  0  0  0  0  0  0  0  0  0
   27.0730   79.5750   19.7980 C   0  0  0  0  0  0  0  0  0  0  0  0
   26.3410   79.9180   18.6610 C   0  0  0  0  0  0  0  0  0  0  0  0
   26.9560   79.9120   17.4100 C   0  0  0  0  0  0  0  0  0  0  0  0
   26.2320   80.2480   16.3060 O   0  0  0  0  0  0  0  0  0  0  0  0
   24.8560   79.8710   16.2930 C   0  0  0  0  0  0  0  0  0  0  0  0
   28.3020   79.5620   17.2940 C   0  0  0  0  0  0  0  0  0  0  0  0
   28.9120   79.5510   16.0770 O   0  0  0  0  0  0  0  0  0  0  0  0
   29.6140   78.3650   15.7130 C   0  0  0  0  0  0  0  0  0  0  0  0
   29.0320   79.2180   18.4310 C   0  0  0  0  0  0  0  0  0  0  0  0
   30.4580   73.9540   19.4000 C   0  0  0  0  0  0  0  0  0  0  0  0
   29.8670   72.9950   18.5770 C   0  0  0  0  0  0  0  0  0  0  0  0
   29.8150   73.1940   17.1990 C   0  0  0  0  0  0  0  0  0  0  0  0
   29.2370   72.2490   16.4050 O   0  0  0  0  0  0  0  0  0  0  0  0
   32.3284   75.0159   15.3937 H   0  0  0  0  0  0  0  0  0  0  0  0
   31.8313   73.9825   14.0111 H   0  0  0  0  0  0  0  0  0  0  0  0
   31.4348   75.7345   14.0111 H   0  0  0  0  0  0  0  0  0  0  0  0
   31.3699   76.2302   17.0261 H   0  0  0  0  0  0  0  0  0  0  0  0
   32.4133   75.6603   20.3206 H   0  0  0  0  0  0  0  0  0  0  0  0
   32.0451   76.9292   19.0767 H   0  0  0  0  0  0  0  0  0  0  0  0
   29.6515   76.3295   20.3891 H   0  0  0  0  0  0  0  0  0  0  0  0
   31.3627   79.7213   21.9806 H   0  0  0  0  0  0  0  0  0  0  0  0
   32.6188   78.8216   21.1235 H   0  0  0  0  0  0  0  0  0  0  0  0
   30.7880   78.6726   19.5276 H   0  0  0  0  0  0  0  0  0  0  0  0
   28.6441   78.0921   21.4618 H   0  0  0  0  0  0  0  0  0  0  0  0
   29.3395   79.7675   21.5026 H   0  0  0  0  0  0  0  0  0  0  0  0
   26.5934   79.5791   20.7879 H   0  0  0  0  0  0  0  0  0  0  0  0
   25.2798   80.1929   18.7515 H   0  0  0  0  0  0  0  0  0  0  0  0
   24.4933   79.7716   17.3267 H   0  0  0  0  0  0  0  0  0  0  0  0
   24.2696   80.6416   15.7711 H   0  0  0  0  0  0  0  0  0  0  0  0
   24.7443   78.9091   15.7711 H   0  0  0  0  0  0  0  0  0  0  0  0
   29.9295   77.8320   16.6221 H   0  0  0  0  0  0  0  0  0  0  0  0
   28.9542   77.7164   15.1180 H   0  0  0  0  0  0  0  0  0  0  0  0
   30.5000   78.6314   15.1180 H   0  0  0  0  0  0  0  0  0  0  0  0
   30.0929   78.9402   18.3458 H   0  0  0  0  0  0  0  0  0  0  0  0
   30.5025   73.8007   20.4884 H   0  0  0  0  0  0  0  0  0  0  0  0
   29.4416   72.0807   19.0165 H   0  0  0  0  0  0  0  0  0  0  0  0
   28.9610   71.3800   16.7920 H   0  0  0  0  0  0  0  0  0  0  0  0
  1  2  1  0
  2  3  1  0
  3  4  1  0
  4  5  2  0
  5  6  1  0
  6  7  1  0
  7  8  1  0
  8  9  2  0
  8 10  1  0
 10 11  1  0
 11 12  1  0
 12 13  1  0
 13 14  1  0
 14 15  1  0
 15 16  2  0
 16 17  1  0
 17 18  1  0
 18 19  1  0
 17 20  2  0
 20 21  1  0
 21 22  1  0
 20 23  1  0
  5 24  1  0
 24 25  2  0
 25 26  1  0
 26 27  1  0
 26  3  2  0
 12  7  1  0
 23 14  2  0
  1 28  1  0
  1 29  1  0
  1 30  1  0
  4 31  1  0
  6 32  1  0
  6 33  1  0
  7 34  1  1
 11 35  1  0
 11 36  1  0
 12 37  1  6
 13 38  1  0
 13 39  1  0
 15 40  1  0
 16 41  1  0
 19 42  1  0
 19 43  1  0
 19 44  1  0
 22 45  1  0
 22 46  1  0
 22 47  1  0
 23 48  1  0
 24 49  1  0
 25 50  1  0
 27 51  1  0
M  END
>  <meeko>  (4) 
{"is_sidechain": [false], "free_energy": -7.136, "intermolecular_energy": -10.05, "internal_energy": -1.522}

$$$$
Arctigenin_64981_out
     RDKit          3D

 51 53  0  0  0  0  0  0  0  0999 V2000
   34.1060   71.9660   15.0060 C   0  0  0  0  0  0  0  0  0  0  0  0
   33.9050   73.3330   15.3600 O   0  0  0  0  0  0  0  0  0  0  0  0
   33.6170   73.5980   16.6650 C   0  0  0  0  0  0  0  0  0  0  0  0
   32.6220   72.8640   17.3100 C   0  0  0  0  0  0  0  0  0  0  0  0
   32.3290   73.1360   18.6390 C   0  0  0  0  0  0  0  0  0  0  0  0
   31.2530   72.3430   19.3370 C   0  0  0  0  0  0  0  0  0  0  0  0
   30.1980   73.2440   19.9620 C   0  0  1  0  0  0  0  0  0  0  0  0
   28.8730   73.0310   19.2750 C   0  0  0  0  0  0  0  0  0  0  0  0
   28.5770   73.4440   18.1640 O   0  0  0  0  0  0  0  0  0  0  0  0
   28.0500   72.2770   20.0640 O   0  0  0  0  0  0  0  0  0  0  0  0
   28.7490   71.8740   21.2460 C   0  0  0  0  0  0  0  0  0  0  0  0
   29.8780   72.8730   21.4070 C   0  0  2  0  0  0  0  0  0  0  0  0
   29.4170   74.0960   22.2030 C   0  0  0  0  0  0  0  0  0  0  0  0
   30.4320   75.2100   22.1620 C   0  0  0  0  0  0  0  0  0  0  0  0
   31.7540   74.9400   22.4810 C   0  0  0  0  0  0  0  0  0  0  0  0
   32.6940   75.9700   22.4420 C   0  0  0  0  0  0  0  0  0  0  0  0
   32.3000   77.2590   22.0840 C   0  0  0  0  0  0  0  0  0  0  0  0
   33.2260   78.2580   22.0510 O   0  0  0  0  0  0  0  0  0  0  0  0
   33.9440   78.4370   20.8320 C   0  0  0  0  0  0  0  0  0  0  0  0
   30.9660   77.5180   21.7650 C   0  0  0  0  0  0  0  0  0  0  0  0
   30.5710   78.7730   21.4150 O   0  0  0  0  0  0  0  0  0  0  0  0
   29.4070   78.8820   20.5990 C   0  0  0  0  0  0  0  0  0  0  0  0
   30.0270   76.4880   21.8050 C   0  0  0  0  0  0  0  0  0  0  0  0
   33.0080   74.1230   19.3370 C   0  0  0  0  0  0  0  0  0  0  0  0
   34.0050   74.8550   18.6910 C   0  0  0  0  0  0  0  0  0  0  0  0
   34.3090   74.5930   17.3560 C   0  0  0  0  0  0  0  0  0  0  0  0
   35.2820   75.3170   16.7360 O   0  0  0  0  0  0  0  0  0  0  0  0
   34.1951   71.3599   15.9196 H   0  0  0  0  0  0  0  0  0  0  0  0
   33.2504   71.6113   14.4127 H   0  0  0  0  0  0  0  0  0  0  0  0
   35.0275   71.8726   14.4127 H   0  0  0  0  0  0  0  0  0  0  0  0
   32.0746   72.0770   16.7706 H   0  0  0  0  0  0  0  0  0  0  0  0
   30.7670   71.6817   18.6045 H   0  0  0  0  0  0  0  0  0  0  0  0
   31.7262   71.7629   20.1430 H   0  0  0  0  0  0  0  0  0  0  0  0
   30.6095   74.2607   19.8781 H   0  0  0  0  0  0  0  0  0  0  0  0
   28.0798   71.9057   22.1184 H   0  0  0  0  0  0  0  0  0  0  0  0
   29.1236   70.8427   21.1679 H   0  0  0  0  0  0  0  0  0  0  0  0
   30.7431   72.4763   21.9585 H   0  0  0  0  0  0  0  0  0  0  0  0
   28.4709   74.4613   21.7771 H   0  0  0  0  0  0  0  0  0  0  0  0
   29.2886   73.7909   23.2520 H   0  0  0  0  0  0  0  0  0  0  0  0
   32.0593   73.9214   22.7627 H   0  0  0  0  0  0  0  0  0  0  0  0
   33.7452   75.7656   22.6934 H   0  0  0  0  0  0  0  0  0  0  0  0
   34.9888   78.6975   21.0567 H   0  0  0  0  0  0  0  0  0  0  0  0
   33.9158   77.5043   20.2495 H   0  0  0  0  0  0  0  0  0  0  0  0
   33.4813   79.2473   20.2495 H   0  0  0  0  0  0  0  0  0  0  0  0
   28.5166   78.9654   21.2396 H   0  0  0  0  0  0  0  0  0  0  0  0
   29.4869   79.7766   19.9639 H   0  0  0  0  0  0  0  0  0  0  0  0
   29.3194   77.9881   19.9639 H   0  0  0  0  0  0  0  0  0  0  0  0
   28.9743   76.6870   21.5557 H   0  0  0  0  0  0  0  0  0  0  0  0
   32.7631   74.3270   20.3898 H   0  0  0  0  0  0  0  0  0  0  0  0
   34.5514   75.6392   19.2355 H   0  0  0  0  0  0  0  0  0  0  0  0
   36.2310   75.0520   16.8310 H   0  0  0  0  0  0  0  0  0  0  0  0
  1  2  1  0
  2  3  1  0
  3  4  1  0
  4  5  2  0
  5  6  1  0
  6  7  1  0
  7  8  1  0
  8  9  2  0
  8 10  1  0
 10 11  1  0
 11 12  1  0
 12 13  1  0
 13 14  1  0
 14 15  1  0
 15 16  2  0
 16 17  1  0
 17 18  1  0
 18 19  1  0
 17 20  2  0
 20 21  1  0
 21 22  1  0
 20 23  1  0
  5 24  1  0
 24 25  2  0
 25 26  1  0
 26 27  1  0
 26  3  2  0
 12  7  1  0
 23 14  2  0
  1 28  1  0
  1 29  1  0
  1 30  1  0
  4 31  1  0
  6 32  1  0
  6 33  1  0
  7 34  1  1
 11 35  1  0
 11 36  1  0
 12 37  1  1
 13 38  1  0
 13 39  1  0
 15 40  1  0
 16 41  1  0
 19 42  1  0
 19 43  1  0
 19 44  1  0
 22 45  1  0
 22 46  1  0
 22 47  1  0
 23 48  1  0
 24 49  1  0
 25 50  1  0
 27 51  1  0
M  END
>  <meeko>  (5) 
{"is_sidechain": [false], "free_energy": -7.114, "intermolecular_energy": -9.826, "internal_energy": -1.713}

$$$$
Arctigenin_64981_out
     RDKit          3D

 51 53  0  0  0  0  0  0  0  0999 V2000
   30.1230   72.2840   17.1840 C   0  0  0  0  0  0  0  0  0  0  0  0
   30.8770   71.8780   18.3250 O   0  0  0  0  0  0  0  0  0  0  0  0
   30.3650   72.1920   19.5480 C   0  0  0  0  0  0  0  0  0  0  0  0
   30.8930   73.2710   20.2570 C   0  0  0  0  0  0  0  0  0  0  0  0
   30.3720   73.5880   21.5020 C   0  0  0  0  0  0  0  0  0  0  0  0
   30.9430   74.7540   22.2680 C   0  0  0  0  0  0  0  0  0  0  0  0
   31.2450   75.9380   21.3600 C   0  0  1  0  0  0  0  0  0  0  0  0
   30.5370   77.1680   21.8710 C   0  0  0  0  0  0  0  0  0  0  0  0
   29.3400   77.3890   21.7720 O   0  0  0  0  0  0  0  0  0  0  0  0
   31.4280   77.9960   22.4960 O   0  0  0  0  0  0  0  0  0  0  0  0
   32.7210   77.3830   22.5250 C   0  0  0  0  0  0  0  0  0  0  0  0
   32.7090   76.3640   21.4030 C   0  0  2  0  0  0  0  0  0  0  0  0
   33.1400   77.0020   20.0800 C   0  0  0  0  0  0  0  0  0  0  0  0
   33.1840   75.9950   18.9580 C   0  0  0  0  0  0  0  0  0  0  0  0
   34.0480   74.9140   19.0470 C   0  0  0  0  0  0  0  0  0  0  0  0
   34.0890   73.9820   18.0090 C   0  0  0  0  0  0  0  0  0  0  0  0
   33.2650   74.1430   16.8960 C   0  0  0  0  0  0  0  0  0  0  0  0
   33.3150   73.2270   15.8880 O   0  0  0  0  0  0  0  0  0  0  0  0
   33.7400   71.9090   16.2280 C   0  0  0  0  0  0  0  0  0  0  0  0
   32.4010   75.2350   16.8180 C   0  0  0  0  0  0  0  0  0  0  0  0
   31.5930   75.4030   15.7350 O   0  0  0  0  0  0  0  0  0  0  0  0
   30.3910   76.1430   15.9300 C   0  0  0  0  0  0  0  0  0  0  0  0
   32.3610   76.1670   17.8550 C   0  0  0  0  0  0  0  0  0  0  0  0
   29.3340   72.8520   22.0550 C   0  0  0  0  0  0  0  0  0  0  0  0
   28.8060   71.7740   21.3450 C   0  0  0  0  0  0  0  0  0  0  0  0
   29.3210   71.4440   20.0930 C   0  0  0  0  0  0  0  0  0  0  0  0
   28.7970   70.3870   19.4100 O   0  0  0  0  0  0  0  0  0  0  0  0
   29.1989   72.7816   17.5133 H   0  0  0  0  0  0  0  0  0  0  0  0
   30.7202   72.9825   16.5795 H   0  0  0  0  0  0  0  0  0  0  0  0
   29.8686   71.4009   16.5795 H   0  0  0  0  0  0  0  0  0  0  0  0
   31.7155   73.8651   19.8320 H   0  0  0  0  0  0  0  0  0  0  0  0
   30.2160   75.0680   23.0315 H   0  0  0  0  0  0  0  0  0  0  0  0
   31.8874   74.4288   22.7288 H   0  0  0  0  0  0  0  0  0  0  0  0
   30.9406   75.6077   20.3559 H   0  0  0  0  0  0  0  0  0  0  0  0
   33.5067   78.1338   22.3546 H   0  0  0  0  0  0  0  0  0  0  0  0
   32.9306   76.9165   23.4989 H   0  0  0  0  0  0  0  0  0  0  0  0
   33.4032   75.5254   21.5607 H   0  0  0  0  0  0  0  0  0  0  0  0
   32.4244   77.7953   19.8180 H   0  0  0  0  0  0  0  0  0  0  0  0
   34.1531   77.4096   20.2122 H   0  0  0  0  0  0  0  0  0  0  0  0
   34.6953   74.7922   19.9280 H   0  0  0  0  0  0  0  0  0  0  0  0
   34.7710   73.1210   18.0690 H   0  0  0  0  0  0  0  0  0  0  0  0
   33.7734   71.8054   17.3226 H   0  0  0  0  0  0  0  0  0  0  0  0
   33.0324   71.1768   15.8118 H   0  0  0  0  0  0  0  0  0  0  0  0
   34.7420   71.7281   15.8118 H   0  0  0  0  0  0  0  0  0  0  0  0
   30.2026   76.2590   17.0075 H   0  0  0  0  0  0  0  0  0  0  0  0
   30.4921   77.1354   15.4665 H   0  0  0  0  0  0  0  0  0  0  0  0
   29.5504   75.6058   15.4665 H   0  0  0  0  0  0  0  0  0  0  0  0
   31.6825   77.0310   17.7985 H   0  0  0  0  0  0  0  0  0  0  0  0
   28.9314   73.1162   23.0440 H   0  0  0  0  0  0  0  0  0  0  0  0
   27.9825   71.1839   21.7736 H   0  0  0  0  0  0  0  0  0  0  0  0
   28.5380   70.4920   18.4600 H   0  0  0  0  0  0  0  0  0  0  0  0
  1  2  1  0
  2  3  1  0
  3  4  1  0
  4  5  2  0
  5  6  1  0
  6  7  1  0
  7  8  1  0
  8  9  2  0
  8 10  1  0
 10 11  1  0
 11 12  1  0
 12 13  1  0
 13 14  1  0
 14 15  1  0
 15 16  2  0
 16 17  1  0
 17 18  1  0
 18 19  1  0
 17 20  2  0
 20 21  1  0
 21 22  1  0
 20 23  1  0
  5 24  1  0
 24 25  2  0
 25 26  1  0
 26 27  1  0
 26  3  2  0
 12  7  1  0
 23 14  2  0
  1 28  1  0
  1 29  1  0
  1 30  1  0
  4 31  1  0
  6 32  1  0
  6 33  1  0
  7 34  1  6
 11 35  1  0
 11 36  1  0
 12 37  1  1
 13 38  1  0
 13 39  1  0
 15 40  1  0
 16 41  1  0
 19 42  1  0
 19 43  1  0
 19 44  1  0
 22 45  1  0
 22 46  1  0
 22 47  1  0
 23 48  1  0
 24 49  1  0
 25 50  1  0
 27 51  1  0
M  END
>  <meeko>  (6) 
{"is_sidechain": [false], "free_energy": -7.012, "intermolecular_energy": -9.369, "internal_energy": -2.024}

$$$$
Arctigenin_64981_out
     RDKit          3D

 51 53  0  0  0  0  0  0  0  0999 V2000
   32.3250   66.5940   16.1450 C   0  0  0  0  0  0  0  0  0  0  0  0
   30.9160   66.6560   15.9300 O   0  0  0  0  0  0  0  0  0  0  0  0
   30.3890   67.8760   15.6290 C   0  0  0  0  0  0  0  0  0  0  0  0
   30.1900   68.8070   16.6490 C   0  0  0  0  0  0  0  0  0  0  0  0
   29.6530   70.0490   16.3420 C   0  0  0  0  0  0  0  0  0  0  0  0
   29.4370   71.0550   17.4440 C   0  0  0  0  0  0  0  0  0  0  0  0
   30.5290   72.1160   17.4660 C   0  0  1  0  0  0  0  0  0  0  0  0
   29.9340   73.4530   17.8300 C   0  0  0  0  0  0  0  0  0  0  0  0
   29.2590   74.1530   17.0900 O   0  0  0  0  0  0  0  0  0  0  0  0
   30.2320   73.7620   19.1280 O   0  0  0  0  0  0  0  0  0  0  0  0
   30.9430   72.6770   19.7330 C   0  0  0  0  0  0  0  0  0  0  0  0
   31.5480   71.8990   18.5800 C   0  0  2  0  0  0  0  0  0  0  0  0
   32.9170   72.4660   18.1960 C   0  0  0  0  0  0  0  0  0  0  0  0
   33.3690   71.9770   16.8440 C   0  0  0  0  0  0  0  0  0  0  0  0
   33.4630   70.6130   16.6090 C   0  0  0  0  0  0  0  0  0  0  0  0
   33.8820   70.1610   15.3580 C   0  0  0  0  0  0  0  0  0  0  0  0
   34.2010   71.0760   14.3560 C   0  0  0  0  0  0  0  0  0  0  0  0
   34.6100   70.6220   13.1380 O   0  0  0  0  0  0  0  0  0  0  0  0
   35.9880   70.2820   13.0020 C   0  0  0  0  0  0  0  0  0  0  0  0
   34.1020   72.4460   14.6050 C   0  0  0  0  0  0  0  0  0  0  0  0
   34.4120   73.3490   13.6340 O   0  0  0  0  0  0  0  0  0  0  0  0
   34.3600   74.7280   13.9910 C   0  0  0  0  0  0  0  0  0  0  0  0
   33.6850   72.8980   15.8560 C   0  0  0  0  0  0  0  0  0  0  0  0
   29.3100   70.3810   15.0390 C   0  0  0  0  0  0  0  0  0  0  0  0
   29.5110   69.4500   14.0200 C   0  0  0  0  0  0  0  0  0  0  0  0
   30.0490   68.1980   14.3150 C   0  0  0  0  0  0  0  0  0  0  0  0
   30.2390   67.2970   13.3110 O   0  0  0  0  0  0  0  0  0  0  0  0
   32.5310   66.5849   17.2255 H   0  0  0  0  0  0  0  0  0  0  0  0
   32.7257   65.6774   15.6876 H   0  0  0  0  0  0  0  0  0  0  0  0
   32.8047   67.4719   15.6876 H   0  0  0  0  0  0  0  0  0  0  0  0
   30.4564   68.5586   17.6870 H   0  0  0  0  0  0  0  0  0  0  0  0
   28.4655   71.5476   17.2905 H   0  0  0  0  0  0  0  0  0  0  0  0
   29.4625   70.5194   18.4045 H   0  0  0  0  0  0  0  0  0  0  0  0
   30.9910   72.0665   16.4690 H   0  0  0  0  0  0  0  0  0  0  0  0
   31.7331   73.0574   20.3972 H   0  0  0  0  0  0  0  0  0  0  0  0
   30.2831   72.0484   20.3490 H   0  0  0  0  0  0  0  0  0  0  0  0
   31.7266   70.8380   18.8087 H   0  0  0  0  0  0  0  0  0  0  0  0
   32.8537   73.5640   18.1741 H   0  0  0  0  0  0  0  0  0  0  0  0
   33.6487   72.1257   18.9436 H   0  0  0  0  0  0  0  0  0  0  0  0
   33.2093   69.8944   17.4023 H   0  0  0  0  0  0  0  0  0  0  0  0
   33.9608   69.0815   15.1618 H   0  0  0  0  0  0  0  0  0  0  0  0
   36.4384   70.1709   13.9994 H   0  0  0  0  0  0  0  0  0  0  0  0
   36.0792   69.3344   12.4508 H   0  0  0  0  0  0  0  0  0  0  0  0
   36.5095   71.0784   12.4508 H   0  0  0  0  0  0  0  0  0  0  0  0
   34.3564   74.8232   15.0869 H   0  0  0  0  0  0  0  0  0  0  0  0
   35.2392   75.2463   13.5808 H   0  0  0  0  0  0  0  0  0  0  0  0
   33.4442   75.1787   13.5808 H   0  0  0  0  0  0  0  0  0  0  0  0
   33.6071   73.9765   16.0581 H   0  0  0  0  0  0  0  0  0  0  0  0
   28.8836   71.3692   14.8119 H   0  0  0  0  0  0  0  0  0  0  0  0
   29.2450   69.7036   12.9832 H   0  0  0  0  0  0  0  0  0  0  0  0
   29.5230   67.1380   12.6470 H   0  0  0  0  0  0  0  0  0  0  0  0
  1  2  1  0
  2  3  1  0
  3  4  1  0
  4  5  2  0
  5  6  1  0
  6  7  1  0
  7  8  1  0
  8  9  2  0
  8 10  1  0
 10 11  1  0
 11 12  1  0
 12 13  1  0
 13 14  1  0
 14 15  1  0
 15 16  2  0
 16 17  1  0
 17 18  1  0
 18 19  1  0
 17 20  2  0
 20 21  1  0
 21 22  1  0
 20 23  1  0
  5 24  1  0
 24 25  2  0
 25 26  1  0
 26 27  1  0
 26  3  2  0
 12  7  1  0
 23 14  2  0
  1 28  1  0
  1 29  1  0
  1 30  1  0
  4 31  1  0
  6 32  1  0
  6 33  1  0
  7 34  1  6
 11 35  1  0
 11 36  1  0
 12 37  1  1
 13 38  1  0
 13 39  1  0
 15 40  1  0
 16 41  1  0
 19 42  1  0
 19 43  1  0
 19 44  1  0
 22 45  1  0
 22 46  1  0
 22 47  1  0
 23 48  1  0
 24 49  1  0
 25 50  1  0
 27 51  1  0
M  END
>  <meeko>  (7) 
{"is_sidechain": [false], "free_energy": -6.997, "intermolecular_energy": -9.451, "internal_energy": -1.921}

$$$$
Arctigenin_64981_out
     RDKit          3D

 51 53  0  0  0  0  0  0  0  0999 V2000
   29.5740   78.6820   16.1320 C   0  0  0  0  0  0  0  0  0  0  0  0
   29.6300   79.8150   16.9970 O   0  0  0  0  0  0  0  0  0  0  0  0
   29.1290   79.6590   18.2550 C   0  0  0  0  0  0  0  0  0  0  0  0
   29.9000   79.0200   19.2260 C   0  0  0  0  0  0  0  0  0  0  0  0
   29.3880   78.8610   20.5050 C   0  0  0  0  0  0  0  0  0  0  0  0
   30.2210   78.1700   21.5550 C   0  0  0  0  0  0  0  0  0  0  0  0
   31.4900   77.5680   20.9680 C   0  0  1  0  0  0  0  0  0  0  0  0
   32.6920   78.3440   21.4470 C   0  0  0  0  0  0  0  0  0  0  0  0
   33.0250   79.4500   21.0510 O   0  0  0  0  0  0  0  0  0  0  0  0
   33.3460   77.6420   22.4200 O   0  0  0  0  0  0  0  0  0  0  0  0
   32.6280   76.4400   22.7160 C   0  0  0  0  0  0  0  0  0  0  0  0
   31.7800   76.1650   21.4900 C   0  0  2  0  0  0  0  0  0  0  0  0
   32.5580   75.3410   20.4600 C   0  0  0  0  0  0  0  0  0  0  0  0
   31.8340   74.0700   20.0940 C   0  0  0  0  0  0  0  0  0  0  0  0
   32.3240   73.2790   19.0670 C   0  0  0  0  0  0  0  0  0  0  0  0
   31.6540   72.1030   18.7280 C   0  0  0  0  0  0  0  0  0  0  0  0
   30.5030   71.7320   19.4210 C   0  0  0  0  0  0  0  0  0  0  0  0
   29.8560   70.5830   19.0810 O   0  0  0  0  0  0  0  0  0  0  0  0
   28.9930   70.6350   17.9460 C   0  0  0  0  0  0  0  0  0  0  0  0
   30.0190   72.5380   20.4530 C   0  0  0  0  0  0  0  0  0  0  0  0
   28.8950   72.1860   21.1360 O   0  0  0  0  0  0  0  0  0  0  0  0
   28.8260   72.5640   22.5090 C   0  0  0  0  0  0  0  0  0  0  0  0
   30.6890   73.7140   20.7910 C   0  0  0  0  0  0  0  0  0  0  0  0
   28.1240   79.3260   20.8360 C   0  0  0  0  0  0  0  0  0  0  0  0
   27.3540   79.9660   19.8640 C   0  0  0  0  0  0  0  0  0  0  0  0
   27.8560   80.1320   18.5750 C   0  0  0  0  0  0  0  0  0  0  0  0
   27.0940   80.7570   17.6340 O   0  0  0  0  0  0  0  0  0  0  0  0
   29.5286   77.7627   16.7344 H   0  0  0  0  0  0  0  0  0  0  0  0
   28.6781   78.7492   15.4973 H   0  0  0  0  0  0  0  0  0  0  0  0
   30.4722   78.6605   15.4973 H   0  0  0  0  0  0  0  0  0  0  0  0
   30.9046   78.6457   18.9796 H   0  0  0  0  0  0  0  0  0  0  0  0
   30.4991   78.9025   22.3270 H   0  0  0  0  0  0  0  0  0  0  0  0
   29.6217   77.3522   21.9816 H   0  0  0  0  0  0  0  0  0  0  0  0
   31.3305   77.5788   19.8797 H   0  0  0  0  0  0  0  0  0  0  0  0
   33.3261   75.6090   22.8953 H   0  0  0  0  0  0  0  0  0  0  0  0
   32.0142   76.5431   23.6230 H   0  0  0  0  0  0  0  0  0  0  0  0
   30.8720   75.5818   21.7034 H   0  0  0  0  0  0  0  0  0  0  0  0
   32.6960   75.9458   19.5516 H   0  0  0  0  0  0  0  0  0  0  0  0
   33.5260   75.0661   20.9042 H   0  0  0  0  0  0  0  0  0  0  0  0
   33.2333   73.5757   18.5238 H   0  0  0  0  0  0  0  0  0  0  0  0
   32.0342   71.4686   17.9138 H   0  0  0  0  0  0  0  0  0  0  0  0
   27.9477   70.6980   18.2828 H   0  0  0  0  0  0  0  0  0  0  0  0
   29.2370   71.5201   17.3401 H   0  0  0  0  0  0  0  0  0  0  0  0
   29.1290   69.7270   17.3401 H   0  0  0  0  0  0  0  0  0  0  0  0
   28.9876   71.6787   23.1416 H   0  0  0  0  0  0  0  0  0  0  0  0
   29.6021   73.3137   22.7224 H   0  0  0  0  0  0  0  0  0  0  0  0
   27.8350   72.9912   22.7224 H   0  0  0  0  0  0  0  0  0  0  0  0
   30.3125   74.3533   21.6031 H   0  0  0  0  0  0  0  0  0  0  0  0
   27.7322   79.1916   21.8550 H   0  0  0  0  0  0  0  0  0  0  0  0
   26.3504   80.3395   20.1156 H   0  0  0  0  0  0  0  0  0  0  0  0
   27.2410   81.7150   17.4360 H   0  0  0  0  0  0  0  0  0  0  0  0
  1  2  1  0
  2  3  1  0
  3  4  1  0
  4  5  2  0
  5  6  1  0
  6  7  1  0
  7  8  1  0
  8  9  2  0
  8 10  1  0
 10 11  1  0
 11 12  1  0
 12 13  1  0
 13 14  1  0
 14 15  1  0
 15 16  2  0
 16 17  1  0
 17 18  1  0
 18 19  1  0
 17 20  2  0
 20 21  1  0
 21 22  1  0
 20 23  1  0
  5 24  1  0
 24 25  2  0
 25 26  1  0
 26 27  1  0
 26  3  2  0
 12  7  1  0
 23 14  2  0
  1 28  1  0
  1 29  1  0
  1 30  1  0
  4 31  1  0
  6 32  1  0
  6 33  1  0
  7 34  1  6
 11 35  1  0
 11 36  1  0
 12 37  1  1
 13 38  1  0
 13 39  1  0
 15 40  1  0
 16 41  1  0
 19 42  1  0
 19 43  1  0
 19 44  1  0
 22 45  1  0
 22 46  1  0
 22 47  1  0
 23 48  1  0
 24 49  1  0
 25 50  1  0
 27 51  1  0
M  END
>  <meeko>  (8) 
{"is_sidechain": [false], "free_energy": -6.756, "intermolecular_energy": -9.824, "internal_energy": -1.202}

$$$$
Arctigenin_64981_out
     RDKit          3D

 51 53  0  0  0  0  0  0  0  0999 V2000
   31.8480   74.9740   22.5830 C   0  0  0  0  0  0  0  0  0  0  0  0
   30.5250   74.8790   22.0560 O   0  0  0  0  0  0  0  0  0  0  0  0
   30.1900   73.7150   21.4310 C   0  0  0  0  0  0  0  0  0  0  0  0
   30.9080   73.3090   20.3060 C   0  0  0  0  0  0  0  0  0  0  0  0
   30.5650   72.1240   19.6710 C   0  0  0  0  0  0  0  0  0  0  0  0
   31.3400   71.6860   18.4550 C   0  0  0  0  0  0  0  0  0  0  0  0
   32.4880   72.6350   18.1390 C   0  0  1  0  0  0  0  0  0  0  0  0
   33.6640   71.8560   17.6080 C   0  0  0  0  0  0  0  0  0  0  0  0
   34.4140   71.1610   18.2780 O   0  0  0  0  0  0  0  0  0  0  0  0
   33.7580   72.0110   16.2530 O   0  0  0  0  0  0  0  0  0  0  0  0
   32.6600   72.7980   15.7790 C   0  0  0  0  0  0  0  0  0  0  0  0
   32.1770   73.5820   16.9840 C   0  0  2  0  0  0  0  0  0  0  0  0
   32.9450   74.8980   17.1240 C   0  0  0  0  0  0  0  0  0  0  0  0
   32.2740   75.8410   18.0900 C   0  0  0  0  0  0  0  0  0  0  0  0
   30.9110   76.0730   17.9800 C   0  0  0  0  0  0  0  0  0  0  0  0
   30.2900   76.9450   18.8740 C   0  0  0  0  0  0  0  0  0  0  0  0
   31.0380   77.5750   19.8670 C   0  0  0  0  0  0  0  0  0  0  0  0
   30.4200   78.4260   20.7330 O   0  0  0  0  0  0  0  0  0  0  0  0
   29.0990   78.0850   21.1470 C   0  0  0  0  0  0  0  0  0  0  0  0
   32.4090   77.3340   19.9670 C   0  0  0  0  0  0  0  0  0  0  0  0
   33.1500   77.9440   20.9330 O   0  0  0  0  0  0  0  0  0  0  0  0
   33.6620   79.2410   20.6340 C   0  0  0  0  0  0  0  0  0  0  0  0
   33.0300   76.4620   19.0730 C   0  0  0  0  0  0  0  0  0  0  0  0
   29.5220   71.3360   20.1340 C   0  0  0  0  0  0  0  0  0  0  0  0
   28.8060   71.7430   21.2600 C   0  0  0  0  0  0  0  0  0  0  0  0
   29.1390   72.9310   21.9080 C   0  0  0  0  0  0  0  0  0  0  0  0
   28.4310   73.3180   23.0060 O   0  0  0  0  0  0  0  0  0  0  0  0
   31.8059   74.9710   23.6822 H   0  0  0  0  0  0  0  0  0  0  0  0
   32.4432   74.1163   22.2365 H   0  0  0  0  0  0  0  0  0  0  0  0
   32.3145   75.9080   22.2365 H   0  0  0  0  0  0  0  0  0  0  0  0
   31.7382   73.9225   19.9260 H   0  0  0  0  0  0  0  0  0  0  0  0
   31.7494   70.6815   18.6374 H   0  0  0  0  0  0  0  0  0  0  0  0
   30.6530   71.6852   17.5959 H   0  0  0  0  0  0  0  0  0  0  0  0
   32.6730   73.1762   19.0786 H   0  0  0  0  0  0  0  0  0  0  0  0
   32.9913   73.4810   14.9830 H   0  0  0  0  0  0  0  0  0  0  0  0
   31.8626   72.1724   15.3514 H   0  0  0  0  0  0  0  0  0  0  0  0
   31.1167   73.8694   16.9281 H   0  0  0  0  0  0  0  0  0  0  0  0
   33.9603   74.6803   17.4870 H   0  0  0  0  0  0  0  0  0  0  0  0
   32.9720   75.3834   16.1372 H   0  0  0  0  0  0  0  0  0  0  0  0
   30.3249   75.5736   17.1945 H   0  0  0  0  0  0  0  0  0  0  0  0
   29.2095   77.1356   18.7953 H   0  0  0  0  0  0  0  0  0  0  0  0
   29.0509   78.0726   22.2459 H   0  0  0  0  0  0  0  0  0  0  0  0
   28.3890   78.8293   20.7573 H   0  0  0  0  0  0  0  0  0  0  0  0
   28.8380   77.0900   20.7573 H   0  0  0  0  0  0  0  0  0  0  0  0
   33.8735   79.7767   21.5712 H   0  0  0  0  0  0  0  0  0  0  0  0
   34.5891   79.1436   20.0501 H   0  0  0  0  0  0  0  0  0  0  0  0
   32.9183   79.8031   20.0501 H   0  0  0  0  0  0  0  0  0  0  0  0
   34.1103   76.2684   19.1470 H   0  0  0  0  0  0  0  0  0  0  0  0
   29.2619   70.3996   19.6187 H   0  0  0  0  0  0  0  0  0  0  0  0
   27.9775   71.1254   21.6369 H   0  0  0  0  0  0  0  0  0  0  0  0
   28.8450   73.2700   23.9040 H   0  0  0  0  0  0  0  0  0  0  0  0
  1  2  1  0
  2  3  1  0
  3  4  1  0
  4  5  2  0
  5  6  1  0
  6  7  1  0
  7  8  1  0
  8  9  2  0
  8 10  1  0
 10 11  1  0
 11 12  1  0
 12 13  1  0
 13 14  1  0
 14 15  1  0
 15 16  2  0
 16 17  1  0
 17 18  1  0
 18 19  1  0
 17 20  2  0
 20 21  1  0
 21 22  1  0
 20 23  1  0
  5 24  1  0
 24 25  2  0
 25 26  1  0
 26 27  1  0
 26  3  2  0
 12  7  1  0
 23 14  2  0
  1 28  1  0
  1 29  1  0
  1 30  1  0
  4 31  1  0
  6 32  1  0
  6 33  1  0
  7 34  1  1
 11 35  1  0
 11 36  1  0
 12 37  1  6
 13 38  1  0
 13 39  1  0
 15 40  1  0
 16 41  1  0
 19 42  1  0
 19 43  1  0
 19 44  1  0
 22 45  1  0
 22 46  1  0
 22 47  1  0
 23 48  1  0
 24 49  1  0
 25 50  1  0
 27 51  1  0
M  END
>  <meeko>  (9) 
{"is_sidechain": [false], "free_energy": -6.718, "intermolecular_energy": -8.974, "internal_energy": -1.996}

$$$$
