CHEMBL327690_10048142_out
     RDKit          3D

 52 53  0  0  0  0  0  0  0  0999 V2000
   30.3990   67.9020   17.0800 O   0  0  0  0  0  0  0  0  0  0  0  0
   29.8560   68.9090   17.5160 C   0  0  0  0  0  0  0  0  0  0  0  0
   29.9730   69.3940   18.9420 C   0  0  0  0  0  0  0  0  0  0  0  0
   29.6960   70.8920   19.0890 C   0  0  0  0  0  0  0  0  0  0  0  0
   29.2270   71.3040   20.4920 C   0  0  0  0  0  0  0  0  0  0  0  0
   29.8160   72.5960   20.9960 C   0  0  0  0  0  0  0  0  0  0  0  0
   29.3930   73.1280   22.2140 C   0  0  0  0  0  0  0  0  0  0  0  0
   29.9390   74.3250   22.6800 C   0  0  0  0  0  0  0  0  0  0  0  0
   30.9080   74.9890   21.9280 C   0  0  0  0  0  0  0  0  0  0  0  0
   31.4590   76.1980   22.4000 N   0  0  0  0  0  0  0  0  0  0  0  0
   30.5940   77.2820   22.8260 C   0  0  0  0  0  0  0  0  0  0  0  0
   29.5530   77.5970   21.7650 C   0  0  0  0  0  0  0  0  0  0  0  0
   30.1120   78.8790   20.6640 Cl  0  0  0  0  0  0  0  0  0  0  0  0
   32.8960   76.3700   22.4800 C   0  0  0  0  0  0  0  0  0  0  0  0
   33.3170   77.7160   21.9110 C   0  0  0  0  0  0  0  0  0  0  0  0
   33.4550   77.6580   20.1370 Cl  0  0  0  0  0  0  0  0  0  0  0  0
   31.3320   74.4570   20.7110 C   0  0  0  0  0  0  0  0  0  0  0  0
   30.7860   73.2610   20.2440 C   0  0  0  0  0  0  0  0  0  0  0  0
   29.0350   69.7430   16.8130 O   0  0  0  0  0  0  0  0  0  0  0  0
   29.1720   69.6870   15.3900 C   0  0  0  0  0  0  0  0  0  0  0  0
   29.3710   71.0890   14.8460 C   0  0  0  0  0  0  0  0  0  0  0  0
   30.5250   71.7220   15.4270 N   0  0  0  0  0  0  0  0  0  0  0  0
   30.4860   72.8110   16.2670 C   0  0  0  0  0  0  0  0  0  0  0  0
   29.5240   73.4390   16.6720 O   0  0  0  0  0  0  0  0  0  0  0  0
   31.8810   73.1190   16.6210 C   0  0  0  0  0  0  0  0  0  0  0  0
   32.6720   72.2400   16.0050 C   0  0  0  0  0  0  0  0  0  0  0  0
   31.8250   71.3240   15.2240 C   0  0  0  0  0  0  0  0  0  0  0  0
   32.2600   70.4080   14.5460 O   0  0  0  0  0  0  0  0  0  0  0  0
   29.2503   68.8416   19.5605 H   0  0  0  0  0  0  0  0  0  0  0  0
   31.0095   69.2179   19.2654 H   0  0  0  0  0  0  0  0  0  0  0  0
   30.6219   71.4395   18.8588 H   0  0  0  0  0  0  0  0  0  0  0  0
   28.8777   71.1347   18.3951 H   0  0  0  0  0  0  0  0  0  0  0  0
   28.1325   71.4114   20.4701 H   0  0  0  0  0  0  0  0  0  0  0  0
   29.5696   70.5162   21.1791 H   0  0  0  0  0  0  0  0  0  0  0  0
   28.6291   72.6042   22.8073 H   0  0  0  0  0  0  0  0  0  0  0  0
   29.6051   74.7447   23.6404 H   0  0  0  0  0  0  0  0  0  0  0  0
   30.0833   76.9906   23.7557 H   0  0  0  0  0  0  0  0  0  0  0  0
   31.2101   78.1785   22.9895 H   0  0  0  0  0  0  0  0  0  0  0  0
   29.3511   76.6870   21.1809 H   0  0  0  0  0  0  0  0  0  0  0  0
   28.6410   77.9485   22.2696 H   0  0  0  0  0  0  0  0  0  0  0  0
   33.2070   76.3118   23.5335 H   0  0  0  0  0  0  0  0  0  0  0  0
   33.3771   75.5750   21.8913 H   0  0  0  0  0  0  0  0  0  0  0  0
   32.5666   78.4715   22.1869 H   0  0  0  0  0  0  0  0  0  0  0  0
   34.3024   77.9740   22.3263 H   0  0  0  0  0  0  0  0  0  0  0  0
   32.0972   74.9803   20.1189 H   0  0  0  0  0  0  0  0  0  0  0  0
   31.1199   72.8421   19.2833 H   0  0  0  0  0  0  0  0  0  0  0  0
   30.0415   69.0657   15.1294 H   0  0  0  0  0  0  0  0  0  0  0  0
   28.2636   69.2487   14.9510 H   0  0  0  0  0  0  0  0  0  0  0  0
   29.5050   71.0335   13.7556 H   0  0  0  0  0  0  0  0  0  0  0  0
   28.4841   71.6872   15.1020 H   0  0  0  0  0  0  0  0  0  0  0  0
   32.2138   73.9342   17.2804 H   0  0  0  0  0  0  0  0  0  0  0  0
   33.7696   72.2053   16.0694 H   0  0  0  0  0  0  0  0  0  0  0  0
  1  2  2  0
  2  3  1  0
  3  4  1  0
  4  5  1  0
  5  6  1  0
  6  7  1  0
  7  8  2  0
  8  9  1  0
  9 10  1  0
 10 11  1  0
 11 12  1  0
 12 13  1  0
 10 14  1  0
 14 15  1  0
 15 16  1  0
  9 17  2  0
 17 18  1  0
  2 19  1  0
 19 20  1  0
 20 21  1  0
 21 22  1  0
 22 23  1  0
 23 24  2  0
 23 25  1  0
 25 26  2  0
 26 27  1  0
 27 28  2  0
 18  6  2  0
 27 22  1  0
  3 29  1  0
  3 30  1  0
  4 31  1  0
  4 32  1  0
  5 33  1  0
  5 34  1  0
  7 35  1  0
  8 36  1  0
 11 37  1  0
 11 38  1  0
 12 39  1  0
 12 40  1  0
 14 41  1  0
 14 42  1  0
 15 43  1  0
 15 44  1  0
 17 45  1  0
 18 46  1  0
 20 47  1  0
 20 48  1  0
 21 49  1  0
 21 50  1  0
 25 51  1  0
 26 52  1  0
M  END
>  <meeko>  (1) 
{"is_sidechain": [false], "free_energy": -6.181, "intermolecular_energy": -10.879, "internal_energy": -1.705}

$$$$
CHEMBL327690_10048142_out
     RDKit          3D

 52 53  0  0  0  0  0  0  0  0999 V2000
   27.9230   75.5830   21.1660 O   0  0  0  0  0  0  0  0  0  0  0  0
   28.7120   76.5190   21.1860 C   0  0  0  0  0  0  0  0  0  0  0  0
   29.9000   76.6150   22.1150 C   0  0  0  0  0  0  0  0  0  0  0  0
   30.4700   75.2480   22.5010 C   0  0  0  0  0  0  0  0  0  0  0  0
   31.6290   74.7820   21.6070 C   0  0  0  0  0  0  0  0  0  0  0  0
   31.2730   73.6810   20.6420 C   0  0  0  0  0  0  0  0  0  0  0  0
   32.0440   73.4800   19.4980 C   0  0  0  0  0  0  0  0  0  0  0  0
   31.7140   72.4600   18.6040 C   0  0  0  0  0  0  0  0  0  0  0  0
   30.6130   71.6430   18.8560 C   0  0  0  0  0  0  0  0  0  0  0  0
   30.2800   70.6120   17.9510 N   0  0  0  0  0  0  0  0  0  0  0  0
   31.2780   69.6400   17.5480 C   0  0  0  0  0  0  0  0  0  0  0  0
   31.6110   68.6940   18.6910 C   0  0  0  0  0  0  0  0  0  0  0  0
   30.1370   68.0880   19.4840 Cl  0  0  0  0  0  0  0  0  0  0  0  0
   28.9350   70.5030   17.4250 C   0  0  0  0  0  0  0  0  0  0  0  0
   28.9050   69.6270   16.1820 C   0  0  0  0  0  0  0  0  0  0  0  0
   28.7110   70.6010   14.7040 Cl  0  0  0  0  0  0  0  0  0  0  0  0
   29.8410   71.8440   20.0000 C   0  0  0  0  0  0  0  0  0  0  0  0
   30.1700   72.8630   20.8930 C   0  0  0  0  0  0  0  0  0  0  0  0
   28.6460   77.6380   20.4080 O   0  0  0  0  0  0  0  0  0  0  0  0
   29.4140   78.7550   20.8670 C   0  0  0  0  0  0  0  0  0  0  0  0
   30.3260   79.2320   19.7530 C   0  0  0  0  0  0  0  0  0  0  0  0
   31.5740   78.5180   19.7500 N   0  0  0  0  0  0  0  0  0  0  0  0
   32.6700   78.8440   20.5160 C   0  0  0  0  0  0  0  0  0  0  0  0
   32.8110   79.7560   21.3120 O   0  0  0  0  0  0  0  0  0  0  0  0
   33.7130   77.8550   20.2010 C   0  0  0  0  0  0  0  0  0  0  0  0
   33.2250   77.0080   19.2930 C   0  0  0  0  0  0  0  0  0  0  0  0
   31.8450   77.4110   18.9810 C   0  0  0  0  0  0  0  0  0  0  0  0
   31.1320   76.8290   18.1790 O   0  0  0  0  0  0  0  0  0  0  0  0
   30.6896   77.1955   21.6154 H   0  0  0  0  0  0  0  0  0  0  0  0
   29.5557   77.1007   23.0399 H   0  0  0  0  0  0  0  0  0  0  0  0
   30.8333   75.3044   23.5377 H   0  0  0  0  0  0  0  0  0  0  0  0
   29.6575   74.5168   22.3775 H   0  0  0  0  0  0  0  0  0  0  0  0
   31.9831   75.6463   21.0260 H   0  0  0  0  0  0  0  0  0  0  0  0
   32.3961   74.3710   22.2798 H   0  0  0  0  0  0  0  0  0  0  0  0
   32.9125   74.1253   19.2998 H   0  0  0  0  0  0  0  0  0  0  0  0
   32.3223   72.3010   17.7014 H   0  0  0  0  0  0  0  0  0  0  0  0
   30.8900   69.0567   16.6999 H   0  0  0  0  0  0  0  0  0  0  0  0
   32.1937   70.1771   17.2599 H   0  0  0  0  0  0  0  0  0  0  0  0
   32.1807   67.8406   18.2946 H   0  0  0  0  0  0  0  0  0  0  0  0
   32.2025   69.2464   19.4360 H   0  0  0  0  0  0  0  0  0  0  0  0
   28.2833   70.0604   18.1927 H   0  0  0  0  0  0  0  0  0  0  0  0
   28.5824   71.5089   17.1533 H   0  0  0  0  0  0  0  0  0  0  0  0
   29.8479   69.0641   16.1182 H   0  0  0  0  0  0  0  0  0  0  0  0
   28.0465   68.9438   16.2611 H   0  0  0  0  0  0  0  0  0  0  0  0
   28.9725   71.1986   20.1978 H   0  0  0  0  0  0  0  0  0  0  0  0
   29.5607   73.0223   21.7949 H   0  0  0  0  0  0  0  0  0  0  0  0
   28.7364   79.5702   21.1608 H   0  0  0  0  0  0  0  0  0  0  0  0
   30.0202   78.4525   21.7336 H   0  0  0  0  0  0  0  0  0  0  0  0
   29.8226   79.0755   18.7875 H   0  0  0  0  0  0  0  0  0  0  0  0
   30.5397   80.2987   19.9155 H   0  0  0  0  0  0  0  0  0  0  0  0
   34.7215   77.8200   20.6388 H   0  0  0  0  0  0  0  0  0  0  0  0
   33.7623   76.1548   18.8532 H   0  0  0  0  0  0  0  0  0  0  0  0
  1  2  2  0
  2  3  1  0
  3  4  1  0
  4  5  1  0
  5  6  1  0
  6  7  1  0
  7  8  2  0
  8  9  1  0
  9 10  1  0
 10 11  1  0
 11 12  1  0
 12 13  1  0
 10 14  1  0
 14 15  1  0
 15 16  1  0
  9 17  2  0
 17 18  1  0
  2 19  1  0
 19 20  1  0
 20 21  1  0
 21 22  1  0
 22 23  1  0
 23 24  2  0
 23 25  1  0
 25 26  2  0
 26 27  1  0
 27 28  2  0
 18  6  2  0
 27 22  1  0
  3 29  1  0
  3 30  1  0
  4 31  1  0
  4 32  1  0
  5 33  1  0
  5 34  1  0
  7 35  1  0
  8 36  1  0
 11 37  1  0
 11 38  1  0
 12 39  1  0
 12 40  1  0
 14 41  1  0
 14 42  1  0
 15 43  1  0
 15 44  1  0
 17 45  1  0
 18 46  1  0
 20 47  1  0
 20 48  1  0
 21 49  1  0
 21 50  1  0
 25 51  1  0
 26 52  1  0
M  END
>  <meeko>  (2) 
{"is_sidechain": [false], "free_energy": -6.123, "intermolecular_energy": -10.399, "internal_energy": -2.082}

$$$$
CHEMBL327690_10048142_out
     RDKit          3D

 52 53  0  0  0  0  0  0  0  0999 V2000
   32.2210   68.2450   18.4670 O   0  0  0  0  0  0  0  0  0  0  0  0
   31.5200   69.2480   18.4300 C   0  0  0  0  0  0  0  0  0  0  0  0
   30.0590   69.2840   18.8150 C   0  0  0  0  0  0  0  0  0  0  0  0
   29.5140   70.7070   18.9600 C   0  0  0  0  0  0  0  0  0  0  0  0
   29.1020   71.0730   20.3940 C   0  0  0  0  0  0  0  0  0  0  0  0
   29.7080   72.3510   20.9130 C   0  0  0  0  0  0  0  0  0  0  0  0
   29.2410   72.9120   22.1010 C   0  0  0  0  0  0  0  0  0  0  0  0
   29.8030   74.0960   22.5820 C   0  0  0  0  0  0  0  0  0  0  0  0
   30.8310   74.7170   21.8740 C   0  0  0  0  0  0  0  0  0  0  0  0
   31.3980   75.9140   22.3610 N   0  0  0  0  0  0  0  0  0  0  0  0
   32.8360   76.0380   22.5070 C   0  0  0  0  0  0  0  0  0  0  0  0
   33.3190   77.3940   22.0180 C   0  0  0  0  0  0  0  0  0  0  0  0
   33.1750   77.5370   20.2490 Cl  0  0  0  0  0  0  0  0  0  0  0  0
   30.5540   77.0390   22.7080 C   0  0  0  0  0  0  0  0  0  0  0  0
   29.6050   77.3810   21.5690 C   0  0  0  0  0  0  0  0  0  0  0  0
   29.7090   79.1050   21.1320 Cl  0  0  0  0  0  0  0  0  0  0  0  0
   31.2980   74.1560   20.6860 C   0  0  0  0  0  0  0  0  0  0  0  0
   30.7370   72.9730   20.2050 C   0  0  0  0  0  0  0  0  0  0  0  0
   31.9150   70.4850   18.0130 O   0  0  0  0  0  0  0  0  0  0  0  0
   32.9970   70.5040   17.0760 C   0  0  0  0  0  0  0  0  0  0  0  0
   32.5450   71.1850   15.7970 C   0  0  0  0  0  0  0  0  0  0  0  0
   31.2700   70.6880   15.3560 N   0  0  0  0  0  0  0  0  0  0  0  0
   31.0530   69.4370   14.8260 C   0  0  0  0  0  0  0  0  0  0  0  0
   31.8490   68.5350   14.6250 O   0  0  0  0  0  0  0  0  0  0  0  0
   29.6170   69.3530   14.5190 C   0  0  0  0  0  0  0  0  0  0  0  0
   29.0480   70.5100   14.8610 C   0  0  0  0  0  0  0  0  0  0  0  0
   30.0910   71.3940   15.4040 C   0  0  0  0  0  0  0  0  0  0  0  0
   29.8810   72.5280   15.8020 O   0  0  0  0  0  0  0  0  0  0  0  0
   29.4789   68.7638   18.0385 H   0  0  0  0  0  0  0  0  0  0  0  0
   29.9647   68.7939   19.7953 H   0  0  0  0  0  0  0  0  0  0  0  0
   30.2932   71.4112   18.6332 H   0  0  0  0  0  0  0  0  0  0  0  0
   28.6057   70.7654   18.3422 H   0  0  0  0  0  0  0  0  0  0  0  0
   28.0072   71.1766   20.4207 H   0  0  0  0  0  0  0  0  0  0  0  0
   29.4745   70.2655   21.0415 H   0  0  0  0  0  0  0  0  0  0  0  0
   28.4298   72.4217   22.6592 H   0  0  0  0  0  0  0  0  0  0  0  0
   29.4349   74.5388   23.5193 H   0  0  0  0  0  0  0  0  0  0  0  0
   33.1009   75.9233   23.5684 H   0  0  0  0  0  0  0  0  0  0  0  0
   33.3181   75.2557   21.9024 H   0  0  0  0  0  0  0  0  0  0  0  0
   32.7136   78.1812   22.4910 H   0  0  0  0  0  0  0  0  0  0  0  0
   34.3798   77.5013   22.2884 H   0  0  0  0  0  0  0  0  0  0  0  0
   29.9658   76.7850   23.6022 H   0  0  0  0  0  0  0  0  0  0  0  0
   31.1955   77.9110   22.9033 H   0  0  0  0  0  0  0  0  0  0  0  0
   29.8663   76.7727   20.6905 H   0  0  0  0  0  0  0  0  0  0  0  0
   28.5773   77.1688   21.8990 H   0  0  0  0  0  0  0  0  0  0  0  0
   32.1091   74.6465   20.1279 H   0  0  0  0  0  0  0  0  0  0  0  0
   31.1057   72.5305   19.2678 H   0  0  0  0  0  0  0  0  0  0  0  0
   33.8452   71.0569   17.5061 H   0  0  0  0  0  0  0  0  0  0  0  0
   33.3077   69.4727   16.8529 H   0  0  0  0  0  0  0  0  0  0  0  0
   32.4634   72.2669   15.9780 H   0  0  0  0  0  0  0  0  0  0  0  0
   33.2871   70.9732   15.0132 H   0  0  0  0  0  0  0  0  0  0  0  0
   29.1010   68.4852   14.0824 H   0  0  0  0  0  0  0  0  0  0  0  0
   27.9821   70.7601   14.7552 H   0  0  0  0  0  0  0  0  0  0  0  0
  1  2  2  0
  2  3  1  0
  3  4  1  0
  4  5  1  0
  5  6  1  0
  6  7  1  0
  7  8  2  0
  8  9  1  0
  9 10  1  0
 10 11  1  0
 11 12  1  0
 12 13  1  0
 10 14  1  0
 14 15  1  0
 15 16  1  0
  9 17  2  0
 17 18  1  0
  2 19  1  0
 19 20  1  0
 20 21  1  0
 21 22  1  0
 22 23  1  0
 23 24  2  0
 23 25  1  0
 25 26  2  0
 26 27  1  0
 27 28  2  0
 18  6  2  0
 27 22  1  0
  3 29  1  0
  3 30  1  0
  4 31  1  0
  4 32  1  0
  5 33  1  0
  5 34  1  0
  7 35  1  0
  8 36  1  0
 11 37  1  0
 11 38  1  0
 12 39  1  0
 12 40  1  0
 14 41  1  0
 14 42  1  0
 15 43  1  0
 15 44  1  0
 17 45  1  0
 18 46  1  0
 20 47  1  0
 20 48  1  0
 21 49  1  0
 21 50  1  0
 25 51  1  0
 26 52  1  0
M  END
>  <meeko>  (3) 
{"is_sidechain": [false], "free_energy": -6.117, "intermolecular_energy": -10.904, "internal_energy": -1.568}

$$$$
CHEMBL327690_10048142_out
     RDKit          3D

 52 53  0  0  0  0  0  0  0  0999 V2000
   31.2460   67.1730   19.4150 O   0  0  0  0  0  0  0  0  0  0  0  0
   31.0740   68.1950   18.7610 C   0  0  0  0  0  0  0  0  0  0  0  0
   29.7480   68.9060   18.6200 C   0  0  0  0  0  0  0  0  0  0  0  0
   29.8590   70.4200   18.8090 C   0  0  0  0  0  0  0  0  0  0  0  0
   29.1810   70.9400   20.0850 C   0  0  0  0  0  0  0  0  0  0  0  0
   29.7760   72.2090   20.6390 C   0  0  0  0  0  0  0  0  0  0  0  0
   29.2900   72.7460   21.8310 C   0  0  0  0  0  0  0  0  0  0  0  0
   29.8410   73.9210   22.3430 C   0  0  0  0  0  0  0  0  0  0  0  0
   30.8790   74.5580   21.6640 C   0  0  0  0  0  0  0  0  0  0  0  0
   31.4350   75.7460   22.1830 N   0  0  0  0  0  0  0  0  0  0  0  0
   30.5770   76.7860   22.7170 C   0  0  0  0  0  0  0  0  0  0  0  0
   29.5600   77.2380   21.6810 C   0  0  0  0  0  0  0  0  0  0  0  0
   30.3510   77.7490   20.1710 Cl  0  0  0  0  0  0  0  0  0  0  0  0
   32.8710   75.9370   22.2020 C   0  0  0  0  0  0  0  0  0  0  0  0
   33.2240   77.4020   22.4080 C   0  0  0  0  0  0  0  0  0  0  0  0
   33.7740   78.1570   20.8910 Cl  0  0  0  0  0  0  0  0  0  0  0  0
   31.3650   74.0220   20.4720 C   0  0  0  0  0  0  0  0  0  0  0  0
   30.8140   72.8470   19.9590 C   0  0  0  0  0  0  0  0  0  0  0  0
   32.0240   68.8460   18.0300 O   0  0  0  0  0  0  0  0  0  0  0  0
   32.9240   68.0060   17.3010 C   0  0  0  0  0  0  0  0  0  0  0  0
   32.9350   68.4240   15.8420 C   0  0  0  0  0  0  0  0  0  0  0  0
   31.6080   68.4430   15.2880 N   0  0  0  0  0  0  0  0  0  0  0  0
   30.9830   69.5590   14.7810 C   0  0  0  0  0  0  0  0  0  0  0  0
   31.3920   70.7040   14.7000 O   0  0  0  0  0  0  0  0  0  0  0  0
   29.6530   69.1240   14.3240 C   0  0  0  0  0  0  0  0  0  0  0  0
   29.5350   67.8180   14.5650 C   0  0  0  0  0  0  0  0  0  0  0  0
   30.7820   67.3490   15.1890 C   0  0  0  0  0  0  0  0  0  0  0  0
   30.9790   66.1940   15.5310 O   0  0  0  0  0  0  0  0  0  0  0  0
   29.3484   68.7065   17.6148 H   0  0  0  0  0  0  0  0  0  0  0  0
   29.0838   68.5235   19.4090 H   0  0  0  0  0  0  0  0  0  0  0  0
   30.9254   70.6864   18.8504 H   0  0  0  0  0  0  0  0  0  0  0  0
   29.3394   70.8864   17.9590 H   0  0  0  0  0  0  0  0  0  0  0  0
   28.1213   71.1285   19.8580 H   0  0  0  0  0  0  0  0  0  0  0  0
   29.3267   70.1661   20.8530 H   0  0  0  0  0  0  0  0  0  0  0  0
   28.4720   72.2429   22.3675 H   0  0  0  0  0  0  0  0  0  0  0  0
   29.4566   74.3449   23.2824 H   0  0  0  0  0  0  0  0  0  0  0  0
   30.0449   76.3966   23.5975 H   0  0  0  0  0  0  0  0  0  0  0  0
   31.2017   77.6479   22.9945 H   0  0  0  0  0  0  0  0  0  0  0  0
   28.8774   76.4036   21.4624 H   0  0  0  0  0  0  0  0  0  0  0  0
   29.0089   78.0976   22.0902 H   0  0  0  0  0  0  0  0  0  0  0  0
   33.3017   75.3445   23.0226 H   0  0  0  0  0  0  0  0  0  0  0  0
   33.2805   75.6108   21.2345 H   0  0  0  0  0  0  0  0  0  0  0  0
   32.3344   77.9368   22.7720 H   0  0  0  0  0  0  0  0  0  0  0  0
   34.0420   77.4615   23.1410 H   0  0  0  0  0  0  0  0  0  0  0  0
   32.1830   74.5255   19.9359 H   0  0  0  0  0  0  0  0  0  0  0  0
   31.1978   72.4240   19.0189 H   0  0  0  0  0  0  0  0  0  0  0  0
   33.9370   68.1042   17.7184 H   0  0  0  0  0  0  0  0  0  0  0  0
   32.5951   66.9593   17.3805 H   0  0  0  0  0  0  0  0  0  0  0  0
   33.3698   69.4313   15.7623 H   0  0  0  0  0  0  0  0  0  0  0  0
   33.5332   67.6928   15.2785 H   0  0  0  0  0  0  0  0  0  0  0  0
   28.8880   69.7661   13.8629 H   0  0  0  0  0  0  0  0  0  0  0  0
   28.6559   67.1975   14.3364 H   0  0  0  0  0  0  0  0  0  0  0  0
  1  2  2  0
  2  3  1  0
  3  4  1  0
  4  5  1  0
  5  6  1  0
  6  7  1  0
  7  8  2  0
  8  9  1  0
  9 10  1  0
 10 11  1  0
 11 12  1  0
 12 13  1  0
 10 14  1  0
 14 15  1  0
 15 16  1  0
  9 17  2  0
 17 18  1  0
  2 19  1  0
 19 20  1  0
 20 21  1  0
 21 22  1  0
 22 23  1  0
 23 24  2  0
 23 25  1  0
 25 26  2  0
 26 27  1  0
 27 28  2  0
 18  6  2  0
 27 22  1  0
  3 29  1  0
  3 30  1  0
  4 31  1  0
  4 32  1  0
  5 33  1  0
  5 34  1  0
  7 35  1  0
  8 36  1  0
 11 37  1  0
 11 38  1  0
 12 39  1  0
 12 40  1  0
 14 41  1  0
 14 42  1  0
 15 43  1  0
 15 44  1  0
 17 45  1  0
 18 46  1  0
 20 47  1  0
 20 48  1  0
 21 49  1  0
 21 50  1  0
 25 51  1  0
 26 52  1  0
M  END
>  <meeko>  (4) 
{"is_sidechain": [false], "free_energy": -6.114, "intermolecular_energy": -11.191, "internal_energy": -1.275}

$$$$
CHEMBL327690_10048142_out
     RDKit          3D

 52 53  0  0  0  0  0  0  0  0999 V2000
   28.5170   77.1560   21.4890 O   0  0  0  0  0  0  0  0  0  0  0  0
   29.6690   77.5590   21.5780 C   0  0  0  0  0  0  0  0  0  0  0  0
   30.6400   77.1390   22.6580 C   0  0  0  0  0  0  0  0  0  0  0  0
   31.4330   75.8820   22.2920 C   0  0  0  0  0  0  0  0  0  0  0  0
   30.6840   74.5700   22.5690 C   0  0  0  0  0  0  0  0  0  0  0  0
   30.5230   73.6750   21.3670 C   0  0  0  0  0  0  0  0  0  0  0  0
   31.4060   73.7830   20.2930 C   0  0  0  0  0  0  0  0  0  0  0  0
   31.2560   72.9530   19.1810 C   0  0  0  0  0  0  0  0  0  0  0  0
   30.2240   72.0160   19.1440 C   0  0  0  0  0  0  0  0  0  0  0  0
   30.0740   71.1780   18.0190 N   0  0  0  0  0  0  0  0  0  0  0  0
   29.8050   69.7630   18.1900 C   0  0  0  0  0  0  0  0  0  0  0  0
   31.0220   69.0400   18.7460 C   0  0  0  0  0  0  0  0  0  0  0  0
   32.4680   69.3420   17.7530 Cl  0  0  0  0  0  0  0  0  0  0  0  0
   30.1720   71.7210   16.6800 C   0  0  0  0  0  0  0  0  0  0  0  0
   29.3920   70.8720   15.6880 C   0  0  0  0  0  0  0  0  0  0  0  0
   30.4730   69.8260   14.7360 Cl  0  0  0  0  0  0  0  0  0  0  0  0
   29.3410   71.9080   20.2180 C   0  0  0  0  0  0  0  0  0  0  0  0
   29.4900   72.7370   21.3300 C   0  0  0  0  0  0  0  0  0  0  0  0
   30.2650   78.4680   20.7540 O   0  0  0  0  0  0  0  0  0  0  0  0
   30.0130   78.2920   19.3560 C   0  0  0  0  0  0  0  0  0  0  0  0
   29.7160   79.6380   18.7230 C   0  0  0  0  0  0  0  0  0  0  0  0
   28.3400   79.7380   18.3160 N   0  0  0  0  0  0  0  0  0  0  0  0
   27.2770   79.9150   19.1710 C   0  0  0  0  0  0  0  0  0  0  0  0
   27.2720   80.0140   20.3860 O   0  0  0  0  0  0  0  0  0  0  0  0
   26.0680   79.9650   18.3340 C   0  0  0  0  0  0  0  0  0  0  0  0
   26.4350   79.8220   17.0600 C   0  0  0  0  0  0  0  0  0  0  0  0
   27.8980   79.6720   17.0150 C   0  0  0  0  0  0  0  0  0  0  0  0
   28.5350   79.5200   15.9860 O   0  0  0  0  0  0  0  0  0  0  0  0
   31.3484   77.9623   22.8322 H   0  0  0  0  0  0  0  0  0  0  0  0
   30.0516   76.9070   23.5580 H   0  0  0  0  0  0  0  0  0  0  0  0
   31.6726   75.9240   21.2192 H   0  0  0  0  0  0  0  0  0  0  0  0
   32.3319   75.8761   22.9260 H   0  0  0  0  0  0  0  0  0  0  0  0
   31.2387   74.0140   23.3392 H   0  0  0  0  0  0  0  0  0  0  0  0
   29.6692   74.8509   22.8873 H   0  0  0  0  0  0  0  0  0  0  0  0
   32.2203   74.5220   20.3223 H   0  0  0  0  0  0  0  0  0  0  0  0
   31.9521   73.0380   18.3335 H   0  0  0  0  0  0  0  0  0  0  0  0
   28.9632   69.6386   18.8870 H   0  0  0  0  0  0  0  0  0  0  0  0
   29.5595   69.3319   17.2082 H   0  0  0  0  0  0  0  0  0  0  0  0
   31.2112   69.3937   19.7703 H   0  0  0  0  0  0  0  0  0  0  0  0
   30.8161   67.9595   18.7374 H   0  0  0  0  0  0  0  0  0  0  0  0
   29.7656   72.7432   16.6759 H   0  0  0  0  0  0  0  0  0  0  0  0
   31.2305   71.7253   16.3807 H   0  0  0  0  0  0  0  0  0  0  0  0
   28.6788   70.2418   16.2396 H   0  0  0  0  0  0  0  0  0  0  0  0
   28.8646   71.5453   14.9962 H   0  0  0  0  0  0  0  0  0  0  0  0
   28.5268   71.1689   20.1883 H   0  0  0  0  0  0  0  0  0  0  0  0
   28.7937   72.6515   22.1773 H   0  0  0  0  0  0  0  0  0  0  0  0
   30.8983   77.8486   18.8767 H   0  0  0  0  0  0  0  0  0  0  0  0
   29.1496   77.6241   19.2200 H   0  0  0  0  0  0  0  0  0  0  0  0
   29.9310   80.4317   19.4537 H   0  0  0  0  0  0  0  0  0  0  0  0
   30.3485   79.7458   17.8295 H   0  0  0  0  0  0  0  0  0  0  0  0
   25.0381   80.0976   18.6969 H   0  0  0  0  0  0  0  0  0  0  0  0
   25.7598   79.8170   16.1916 H   0  0  0  0  0  0  0  0  0  0  0  0
  1  2  2  0
  2  3  1  0
  3  4  1  0
  4  5  1  0
  5  6  1  0
  6  7  1  0
  7  8  2  0
  8  9  1  0
  9 10  1  0
 10 11  1  0
 11 12  1  0
 12 13  1  0
 10 14  1  0
 14 15  1  0
 15 16  1  0
  9 17  2  0
 17 18  1  0
  2 19  1  0
 19 20  1  0
 20 21  1  0
 21 22  1  0
 22 23  1  0
 23 24  2  0
 23 25  1  0
 25 26  2  0
 26 27  1  0
 27 28  2  0
 18  6  2  0
 27 22  1  0
  3 29  1  0
  3 30  1  0
  4 31  1  0
  4 32  1  0
  5 33  1  0
  5 34  1  0
  7 35  1  0
  8 36  1  0
 11 37  1  0
 11 38  1  0
 12 39  1  0
 12 40  1  0
 14 41  1  0
 14 42  1  0
 15 43  1  0
 15 44  1  0
 17 45  1  0
 18 46  1  0
 20 47  1  0
 20 48  1  0
 21 49  1  0
 21 50  1  0
 25 51  1  0
 26 52  1  0
M  END
>  <meeko>  (5) 
{"is_sidechain": [false], "free_energy": -6.101, "intermolecular_energy": -11.094, "internal_energy": -1.35}

$$$$
CHEMBL327690_10048142_out
     RDKit          3D

 52 53  0  0  0  0  0  0  0  0999 V2000
   28.6200   76.8350   20.9540 O   0  0  0  0  0  0  0  0  0  0  0  0
   29.7290   77.2740   21.2330 C   0  0  0  0  0  0  0  0  0  0  0  0
   30.4710   76.9680   22.5130 C   0  0  0  0  0  0  0  0  0  0  0  0
   31.3870   75.7470   22.3970 C   0  0  0  0  0  0  0  0  0  0  0  0
   30.6390   74.4060   22.4040 C   0  0  0  0  0  0  0  0  0  0  0  0
   30.7050   73.6450   21.1050 C   0  0  0  0  0  0  0  0  0  0  0  0
   29.8580   72.5570   20.8900 C   0  0  0  0  0  0  0  0  0  0  0  0
   29.9190   71.8530   19.6870 C   0  0  0  0  0  0  0  0  0  0  0  0
   30.8260   72.2360   18.7000 C   0  0  0  0  0  0  0  0  0  0  0  0
   30.8870   71.5240   17.4840 N   0  0  0  0  0  0  0  0  0  0  0  0
   29.9110   71.7710   16.4390 C   0  0  0  0  0  0  0  0  0  0  0  0
   29.4060   70.4660   15.8450 C   0  0  0  0  0  0  0  0  0  0  0  0
   28.2920   69.6330   16.9560 Cl  0  0  0  0  0  0  0  0  0  0  0  0
   31.9310   70.5460   17.2570 C   0  0  0  0  0  0  0  0  0  0  0  0
   32.9720   71.0750   16.2820 C   0  0  0  0  0  0  0  0  0  0  0  0
   33.3690   69.8670   15.0350 Cl  0  0  0  0  0  0  0  0  0  0  0  0
   31.6730   73.3240   18.9140 C   0  0  0  0  0  0  0  0  0  0  0  0
   31.6120   74.0280   20.1170 C   0  0  0  0  0  0  0  0  0  0  0  0
   30.4680   78.1260   20.4660 O   0  0  0  0  0  0  0  0  0  0  0  0
   30.1590   78.1250   19.0690 C   0  0  0  0  0  0  0  0  0  0  0  0
   29.8560   79.5420   18.6170 C   0  0  0  0  0  0  0  0  0  0  0  0
   28.4610   79.7130   18.3160 N   0  0  0  0  0  0  0  0  0  0  0  0
   27.9180   79.6860   17.0520 C   0  0  0  0  0  0  0  0  0  0  0  0
   28.4720   79.5230   15.9780 O   0  0  0  0  0  0  0  0  0  0  0  0
   26.4720   79.8990   17.2090 C   0  0  0  0  0  0  0  0  0  0  0  0
   26.2090   80.0420   18.5100 C   0  0  0  0  0  0  0  0  0  0  0  0
   27.4750   79.9280   19.2510 C   0  0  0  0  0  0  0  0  0  0  0  0
   27.5630   80.0190   20.4640 O   0  0  0  0  0  0  0  0  0  0  0  0
   31.0837   77.8416   22.7802 H   0  0  0  0  0  0  0  0  0  0  0  0
   29.7187   76.7425   23.2832 H   0  0  0  0  0  0  0  0  0  0  0  0
   31.9503   75.8246   21.4553 H   0  0  0  0  0  0  0  0  0  0  0  0
   32.0409   75.7528   23.2815 H   0  0  0  0  0  0  0  0  0  0  0  0
   31.0728   73.7751   23.1938 H   0  0  0  0  0  0  0  0  0  0  0  0
   29.5780   74.6413   22.5743 H   0  0  0  0  0  0  0  0  0  0  0  0
   29.1425   72.2545   21.6688 H   0  0  0  0  0  0  0  0  0  0  0  0
   29.2513   70.9955   19.5173 H   0  0  0  0  0  0  0  0  0  0  0  0
   29.0613   72.3252   16.8643 H   0  0  0  0  0  0  0  0  0  0  0  0
   30.3924   72.3558   15.6413 H   0  0  0  0  0  0  0  0  0  0  0  0
   28.8781   70.6818   14.9044 H   0  0  0  0  0  0  0  0  0  0  0  0
   30.2708   69.8100   15.6664 H   0  0  0  0  0  0  0  0  0  0  0  0
   32.4203   70.3136   18.2144 H   0  0  0  0  0  0  0  0  0  0  0  0
   31.4760   69.6416   16.8268 H   0  0  0  0  0  0  0  0  0  0  0  0
   32.5777   71.9779   15.7928 H   0  0  0  0  0  0  0  0  0  0  0  0
   33.8885   71.3044   16.8454 H   0  0  0  0  0  0  0  0  0  0  0  0
   32.3882   73.6264   18.1349 H   0  0  0  0  0  0  0  0  0  0  0  0
   32.2796   74.8857   20.2864 H   0  0  0  0  0  0  0  0  0  0  0  0
   31.0185   77.7356   18.5036 H   0  0  0  0  0  0  0  0  0  0  0  0
   29.2816   77.4868   18.8879 H   0  0  0  0  0  0  0  0  0  0  0  0
   30.1366   80.2405   19.4191 H   0  0  0  0  0  0  0  0  0  0  0  0
   30.4331   79.7429   17.7023 H   0  0  0  0  0  0  0  0  0  0  0  0
   25.7336   79.9345   16.3945 H   0  0  0  0  0  0  0  0  0  0  0  0
   25.2167   80.2152   18.9519 H   0  0  0  0  0  0  0  0  0  0  0  0
  1  2  2  0
  2  3  1  0
  3  4  1  0
  4  5  1  0
  5  6  1  0
  6  7  1  0
  7  8  2  0
  8  9  1  0
  9 10  1  0
 10 11  1  0
 11 12  1  0
 12 13  1  0
 10 14  1  0
 14 15  1  0
 15 16  1  0
  9 17  2  0
 17 18  1  0
  2 19  1  0
 19 20  1  0
 20 21  1  0
 21 22  1  0
 22 23  1  0
 23 24  2  0
 23 25  1  0
 25 26  2  0
 26 27  1  0
 27 28  2  0
 18  6  2  0
 27 22  1  0
  3 29  1  0
  3 30  1  0
  4 31  1  0
  4 32  1  0
  5 33  1  0
  5 34  1  0
  7 35  1  0
  8 36  1  0
 11 37  1  0
 11 38  1  0
 12 39  1  0
 12 40  1  0
 14 41  1  0
 14 42  1  0
 15 43  1  0
 15 44  1  0
 17 45  1  0
 18 46  1  0
 20 47  1  0
 20 48  1  0
 21 49  1  0
 21 50  1  0
 25 51  1  0
 26 52  1  0
M  END
>  <meeko>  (6) 
{"is_sidechain": [false], "free_energy": -6.097, "intermolecular_energy": -11.024, "internal_energy": -1.412}

$$$$
CHEMBL327690_10048142_out
     RDKit          3D

 52 53  0  0  0  0  0  0  0  0999 V2000
   34.1050   71.4360   16.0730 O   0  0  0  0  0  0  0  0  0  0  0  0
   33.5620   70.7230   16.9070 C   0  0  0  0  0  0  0  0  0  0  0  0
   32.9140   71.2310   18.1740 C   0  0  0  0  0  0  0  0  0  0  0  0
   31.5130   71.8030   17.9420 C   0  0  0  0  0  0  0  0  0  0  0  0
   30.6710   71.9250   19.2200 C   0  0  0  0  0  0  0  0  0  0  0  0
   30.9170   73.1810   20.0160 C   0  0  0  0  0  0  0  0  0  0  0  0
   30.4810   73.2660   21.3380 C   0  0  0  0  0  0  0  0  0  0  0  0
   30.7100   74.4290   22.0740 C   0  0  0  0  0  0  0  0  0  0  0  0
   31.3740   75.5060   21.4880 C   0  0  0  0  0  0  0  0  0  0  0  0
   31.6050   76.6810   22.2340 N   0  0  0  0  0  0  0  0  0  0  0  0
   32.9490   77.2050   22.3790 C   0  0  0  0  0  0  0  0  0  0  0  0
   33.0790   78.5650   21.7120 C   0  0  0  0  0  0  0  0  0  0  0  0
   34.2060   78.5100   20.3350 Cl  0  0  0  0  0  0  0  0  0  0  0  0
   30.5010   77.3870   22.8530 C   0  0  0  0  0  0  0  0  0  0  0  0
   29.3620   77.5900   21.8660 C   0  0  0  0  0  0  0  0  0  0  0  0
   29.7350   78.8820   20.6980 Cl  0  0  0  0  0  0  0  0  0  0  0  0
   31.8110   75.4210   20.1670 C   0  0  0  0  0  0  0  0  0  0  0  0
   31.5820   74.2590   19.4300 C   0  0  0  0  0  0  0  0  0  0  0  0
   33.4720   69.3620   16.8600 O   0  0  0  0  0  0  0  0  0  0  0  0
   33.4420   68.7910   15.5480 C   0  0  0  0  0  0  0  0  0  0  0  0
   32.2320   67.8850   15.4190 C   0  0  0  0  0  0  0  0  0  0  0  0
   31.0040   68.6280   15.5020 N   0  0  0  0  0  0  0  0  0  0  0  0
   30.1630   68.6400   16.5910 C   0  0  0  0  0  0  0  0  0  0  0  0
   30.2690   68.0550   17.6550 O   0  0  0  0  0  0  0  0  0  0  0  0
   29.0410   69.5270   16.2460 C   0  0  0  0  0  0  0  0  0  0  0  0
   29.2410   69.9950   15.0130 C   0  0  0  0  0  0  0  0  0  0  0  0
   30.5010   69.4310   14.5050 C   0  0  0  0  0  0  0  0  0  0  0  0
   30.9560   69.6710   13.3990 O   0  0  0  0  0  0  0  0  0  0  0  0
   32.8384   70.3973   18.8876 H   0  0  0  0  0  0  0  0  0  0  0  0
   33.5425   72.0469   18.5605 H   0  0  0  0  0  0  0  0  0  0  0  0
   31.6168   72.8044   17.4988 H   0  0  0  0  0  0  0  0  0  0  0  0
   30.9870   71.1001   17.2792 H   0  0  0  0  0  0  0  0  0  0  0  0
   29.6089   71.9022   18.9346 H   0  0  0  0  0  0  0  0  0  0  0  0
   30.9622   71.0841   19.8666 H   0  0  0  0  0  0  0  0  0  0  0  0
   29.9568   72.4165   21.8002 H   0  0  0  0  0  0  0  0  0  0  0  0
   30.3666   74.4963   23.1169 H   0  0  0  0  0  0  0  0  0  0  0  0
   33.1822   77.3056   23.4493 H   0  0  0  0  0  0  0  0  0  0  0  0
   33.6503   76.5092   21.8952 H   0  0  0  0  0  0  0  0  0  0  0  0
   32.0894   78.8827   21.3517 H   0  0  0  0  0  0  0  0  0  0  0  0
   33.4727   79.2768   22.4525 H   0  0  0  0  0  0  0  0  0  0  0  0
   30.1348   76.8019   23.7095 H   0  0  0  0  0  0  0  0  0  0  0  0
   30.8576   78.3734   23.1844 H   0  0  0  0  0  0  0  0  0  0  0  0
   29.1915   76.6512   21.3186 H   0  0  0  0  0  0  0  0  0  0  0  0
   28.4639   77.8824   22.4298 H   0  0  0  0  0  0  0  0  0  0  0  0
   32.3364   76.2702   19.7058 H   0  0  0  0  0  0  0  0  0  0  0  0
   31.9255   74.1924   18.3871 H   0  0  0  0  0  0  0  0  0  0  0  0
   33.3799   69.5947   14.7995 H   0  0  0  0  0  0  0  0  0  0  0  0
   34.3582   68.2055   15.3816 H   0  0  0  0  0  0  0  0  0  0  0  0
   32.2731   67.3705   14.4476 H   0  0  0  0  0  0  0  0  0  0  0  0
   32.2535   67.1617   16.2475 H   0  0  0  0  0  0  0  0  0  0  0  0
   28.1841   69.7637   16.8938 H   0  0  0  0  0  0  0  0  0  0  0  0
   28.5778   70.6841   14.4696 H   0  0  0  0  0  0  0  0  0  0  0  0
  1  2  2  0
  2  3  1  0
  3  4  1  0
  4  5  1  0
  5  6  1  0
  6  7  1  0
  7  8  2  0
  8  9  1  0
  9 10  1  0
 10 11  1  0
 11 12  1  0
 12 13  1  0
 10 14  1  0
 14 15  1  0
 15 16  1  0
  9 17  2  0
 17 18  1  0
  2 19  1  0
 19 20  1  0
 20 21  1  0
 21 22  1  0
 22 23  1  0
 23 24  2  0
 23 25  1  0
 25 26  2  0
 26 27  1  0
 27 28  2  0
 18  6  2  0
 27 22  1  0
  3 29  1  0
  3 30  1  0
  4 31  1  0
  4 32  1  0
  5 33  1  0
  5 34  1  0
  7 35  1  0
  8 36  1  0
 11 37  1  0
 11 38  1  0
 12 39  1  0
 12 40  1  0
 14 41  1  0
 14 42  1  0
 15 43  1  0
 15 44  1  0
 17 45  1  0
 18 46  1  0
 20 47  1  0
 20 48  1  0
 21 49  1  0
 21 50  1  0
 25 51  1  0
 26 52  1  0
M  END
>  <meeko>  (7) 
{"is_sidechain": [false], "free_energy": -6.079, "intermolecular_energy": -10.924, "internal_energy": -1.481}

$$$$
CHEMBL327690_10048142_out
     RDKit          3D

 52 53  0  0  0  0  0  0  0  0999 V2000
   28.4690   76.6000   21.1740 O   0  0  0  0  0  0  0  0  0  0  0  0
   29.2390   77.4790   21.5420 C   0  0  0  0  0  0  0  0  0  0  0  0
   30.1760   77.3550   22.7210 C   0  0  0  0  0  0  0  0  0  0  0  0
   31.2900   76.3300   22.4930 C   0  0  0  0  0  0  0  0  0  0  0  0
   30.8420   74.8720   22.6730 C   0  0  0  0  0  0  0  0  0  0  0  0
   30.9460   74.0260   21.4300 C   0  0  0  0  0  0  0  0  0  0  0  0
   30.0250   73.0040   21.2040 C   0  0  0  0  0  0  0  0  0  0  0  0
   30.1210   72.2210   20.0520 C   0  0  0  0  0  0  0  0  0  0  0  0
   31.1390   72.4610   19.1290 C   0  0  0  0  0  0  0  0  0  0  0  0
   31.2350   71.6680   17.9660 N   0  0  0  0  0  0  0  0  0  0  0  0
   30.4050   70.4890   17.8110 C   0  0  0  0  0  0  0  0  0  0  0  0
   29.4440   70.6490   16.6440 C   0  0  0  0  0  0  0  0  0  0  0  0
   28.0910   69.4970   16.7520 Cl  0  0  0  0  0  0  0  0  0  0  0  0
   32.1540   72.0290   16.9060 C   0  0  0  0  0  0  0  0  0  0  0  0
   33.1870   70.9340   16.6830 C   0  0  0  0  0  0  0  0  0  0  0  0
   34.0870   70.5770   18.1780 Cl  0  0  0  0  0  0  0  0  0  0  0  0
   32.0600   73.4830   19.3560 C   0  0  0  0  0  0  0  0  0  0  0  0
   31.9640   74.2660   20.5060 C   0  0  0  0  0  0  0  0  0  0  0  0
   29.3640   78.7180   20.9850 O   0  0  0  0  0  0  0  0  0  0  0  0
   28.6590   78.9150   19.7550 C   0  0  0  0  0  0  0  0  0  0  0  0
   29.5880   79.5470   18.7360 C   0  0  0  0  0  0  0  0  0  0  0  0
   29.8530   78.6550   17.6390 N   0  0  0  0  0  0  0  0  0  0  0  0
   29.2810   78.7500   16.3910 C   0  0  0  0  0  0  0  0  0  0  0  0
   28.4720   79.5610   15.9730 O   0  0  0  0  0  0  0  0  0  0  0  0
   29.8330   77.6470   15.5900 C   0  0  0  0  0  0  0  0  0  0  0  0
   30.6810   76.9580   16.3550 C   0  0  0  0  0  0  0  0  0  0  0  0
   30.7140   77.5840   17.6860 C   0  0  0  0  0  0  0  0  0  0  0  0
   31.3980   77.1780   18.6110 O   0  0  0  0  0  0  0  0  0  0  0  0
   30.6356   78.3366   22.9085 H   0  0  0  0  0  0  0  0  0  0  0  0
   29.5814   77.0099   23.5797 H   0  0  0  0  0  0  0  0  0  0  0  0
   31.6679   76.4519   21.4671 H   0  0  0  0  0  0  0  0  0  0  0  0
   32.0611   76.5228   23.2534 H   0  0  0  0  0  0  0  0  0  0  0  0
   31.4683   74.4144   23.4530 H   0  0  0  0  0  0  0  0  0  0  0  0
   29.7754   74.9042   22.9401 H   0  0  0  0  0  0  0  0  0  0  0  0
   29.2232   72.8146   21.9329 H   0  0  0  0  0  0  0  0  0  0  0  0
   29.3941   71.4152   19.8723 H   0  0  0  0  0  0  0  0  0  0  0  0
   31.0498   69.6165   17.6291 H   0  0  0  0  0  0  0  0  0  0  0  0
   29.8187   70.3496   18.7313 H   0  0  0  0  0  0  0  0  0  0  0  0
   29.0429   71.6732   16.6489 H   0  0  0  0  0  0  0  0  0  0  0  0
   29.9946   70.4491   15.7130 H   0  0  0  0  0  0  0  0  0  0  0  0
   31.5874   72.1837   15.9759 H   0  0  0  0  0  0  0  0  0  0  0  0
   32.6783   72.9515   17.1960 H   0  0  0  0  0  0  0  0  0  0  0  0
   32.6740   70.0208   16.3472 H   0  0  0  0  0  0  0  0  0  0  0  0
   33.9019   71.2816   15.9227 H   0  0  0  0  0  0  0  0  0  0  0  0
   32.8625   73.6717   18.6278 H   0  0  0  0  0  0  0  0  0  0  0  0
   32.6904   75.0725   20.6847 H   0  0  0  0  0  0  0  0  0  0  0  0
   28.3044   77.9451   19.3761 H   0  0  0  0  0  0  0  0  0  0  0  0
   27.7983   79.5779   19.9276 H   0  0  0  0  0  0  0  0  0  0  0  0
   29.1208   80.4635   18.3465 H   0  0  0  0  0  0  0  0  0  0  0  0
   30.5422   79.7747   19.2337 H   0  0  0  0  0  0  0  0  0  0  0  0
   29.5885   77.4278   14.5402 H   0  0  0  0  0  0  0  0  0  0  0  0
   31.2567   76.0737   16.0442 H   0  0  0  0  0  0  0  0  0  0  0  0
  1  2  2  0
  2  3  1  0
  3  4  1  0
  4  5  1  0
  5  6  1  0
  6  7  1  0
  7  8  2  0
  8  9  1  0
  9 10  1  0
 10 11  1  0
 11 12  1  0
 12 13  1  0
 10 14  1  0
 14 15  1  0
 15 16  1  0
  9 17  2  0
 17 18  1  0
  2 19  1  0
 19 20  1  0
 20 21  1  0
 21 22  1  0
 22 23  1  0
 23 24  2  0
 23 25  1  0
 25 26  2  0
 26 27  1  0
 27 28  2  0
 18  6  2  0
 27 22  1  0
  3 29  1  0
  3 30  1  0
  4 31  1  0
  4 32  1  0
  5 33  1  0
  5 34  1  0
  7 35  1  0
  8 36  1  0
 11 37  1  0
 11 38  1  0
 12 39  1  0
 12 40  1  0
 14 41  1  0
 14 42  1  0
 15 43  1  0
 15 44  1  0
 17 45  1  0
 18 46  1  0
 20 47  1  0
 20 48  1  0
 21 49  1  0
 21 50  1  0
 25 51  1  0
 26 52  1  0
M  END
>  <meeko>  (8) 
{"is_sidechain": [false], "free_energy": -6.074, "intermolecular_energy": -10.786, "internal_energy": -1.609}

$$$$
CHEMBL327690_10048142_out
     RDKit          3D

 52 53  0  0  0  0  0  0  0  0999 V2000
   28.7080   76.6620   20.7140 O   0  0  0  0  0  0  0  0  0  0  0  0
   29.6110   77.3630   21.1520 C   0  0  0  0  0  0  0  0  0  0  0  0
   30.2940   77.1440   22.4820 C   0  0  0  0  0  0  0  0  0  0  0  0
   30.6940   75.6860   22.7160 C   0  0  0  0  0  0  0  0  0  0  0  0
   31.9650   75.2610   21.9650 C   0  0  0  0  0  0  0  0  0  0  0  0
   31.7320   74.2780   20.8460 C   0  0  0  0  0  0  0  0  0  0  0  0
   32.5760   74.2730   19.7360 C   0  0  0  0  0  0  0  0  0  0  0  0
   32.3610   73.3620   18.7000 C   0  0  0  0  0  0  0  0  0  0  0  0
   31.3020   72.4580   18.7760 C   0  0  0  0  0  0  0  0  0  0  0  0
   31.0850   71.5390   17.7280 N   0  0  0  0  0  0  0  0  0  0  0  0
   31.9190   70.3580   17.6050 C   0  0  0  0  0  0  0  0  0  0  0  0
   32.8190   70.4520   16.3830 C   0  0  0  0  0  0  0  0  0  0  0  0
   32.5370   69.0990   15.2610 Cl  0  0  0  0  0  0  0  0  0  0  0  0
   30.0190   71.7530   16.7710 C   0  0  0  0  0  0  0  0  0  0  0  0
   29.1130   70.5350   16.6810 C   0  0  0  0  0  0  0  0  0  0  0  0
   29.0300   69.9080   15.0160 Cl  0  0  0  0  0  0  0  0  0  0  0  0
   30.4580   72.4640   19.8860 C   0  0  0  0  0  0  0  0  0  0  0  0
   30.6730   73.3730   20.9210 C   0  0  0  0  0  0  0  0  0  0  0  0
   30.1350   78.4660   20.5430 O   0  0  0  0  0  0  0  0  0  0  0  0
   30.0990   78.4570   19.1130 C   0  0  0  0  0  0  0  0  0  0  0  0
   29.6720   79.8240   18.6100 C   0  0  0  0  0  0  0  0  0  0  0  0
   28.2790   79.8450   18.2560 N   0  0  0  0  0  0  0  0  0  0  0  0
   27.7910   79.7560   16.9730 C   0  0  0  0  0  0  0  0  0  0  0  0
   28.3980   79.6500   15.9210 O   0  0  0  0  0  0  0  0  0  0  0  0
   26.3240   79.8150   17.0750 C   0  0  0  0  0  0  0  0  0  0  0  0
   26.0000   79.9330   18.3630 C   0  0  0  0  0  0  0  0  0  0  0  0
   27.2420   79.9570   19.1520 C   0  0  0  0  0  0  0  0  0  0  0  0
   27.2730   80.0600   20.3670 O   0  0  0  0  0  0  0  0  0  0  0  0
   31.2005   77.7661   22.5171 H   0  0  0  0  0  0  0  0  0  0  0  0
   29.5766   77.4187   23.2693 H   0  0  0  0  0  0  0  0  0  0  0  0
   30.8638   75.5420   23.7932 H   0  0  0  0  0  0  0  0  0  0  0  0
   29.8726   75.0638   22.3311 H   0  0  0  0  0  0  0  0  0  0  0  0
   32.4297   76.1624   21.5390 H   0  0  0  0  0  0  0  0  0  0  0  0
   32.6063   74.7519   22.6995 H   0  0  0  0  0  0  0  0  0  0  0  0
   33.4110   74.9866   19.6766 H   0  0  0  0  0  0  0  0  0  0  0  0
   33.0267   73.3574   17.8243 H   0  0  0  0  0  0  0  0  0  0  0  0
   32.5436   70.2632   18.5055 H   0  0  0  0  0  0  0  0  0  0  0  0
   31.2675   69.4787   17.4939 H   0  0  0  0  0  0  0  0  0  0  0  0
   32.6150   71.3983   15.8606 H   0  0  0  0  0  0  0  0  0  0  0  0
   33.8652   70.4091   16.7202 H   0  0  0  0  0  0  0  0  0  0  0  0
   29.4226   72.6221   17.0856 H   0  0  0  0  0  0  0  0  0  0  0  0
   30.4669   71.9297   15.7820 H   0  0  0  0  0  0  0  0  0  0  0  0
   29.5057   69.7474   17.3408 H   0  0  0  0  0  0  0  0  0  0  0  0
   28.1002   70.8336   16.9893 H   0  0  0  0  0  0  0  0  0  0  0  0
   29.6222   71.7512   19.9450 H   0  0  0  0  0  0  0  0  0  0  0  0
   30.0075   73.3766   21.7969 H   0  0  0  0  0  0  0  0  0  0  0  0
   31.0992   78.2183   18.7224 H   0  0  0  0  0  0  0  0  0  0  0  0
   29.3808   77.6983   18.7686 H   0  0  0  0  0  0  0  0  0  0  0  0
   29.8508   80.5674   19.4008 H   0  0  0  0  0  0  0  0  0  0  0  0
   30.2597   80.0591   17.7104 H   0  0  0  0  0  0  0  0  0  0  0  0
   25.6168   79.7696   16.2337 H   0  0  0  0  0  0  0  0  0  0  0  0
   24.9790   80.0008   18.7667 H   0  0  0  0  0  0  0  0  0  0  0  0
  1  2  2  0
  2  3  1  0
  3  4  1  0
  4  5  1  0
  5  6  1  0
  6  7  1  0
  7  8  2  0
  8  9  1  0
  9 10  1  0
 10 11  1  0
 11 12  1  0
 12 13  1  0
 10 14  1  0
 14 15  1  0
 15 16  1  0
  9 17  2  0
 17 18  1  0
  2 19  1  0
 19 20  1  0
 20 21  1  0
 21 22  1  0
 22 23  1  0
 23 24  2  0
 23 25  1  0
 25 26  2  0
 26 27  1  0
 27 28  2  0
 18  6  2  0
 27 22  1  0
  3 29  1  0
  3 30  1  0
  4 31  1  0
  4 32  1  0
  5 33  1  0
  5 34  1  0
  7 35  1  0
  8 36  1  0
 11 37  1  0
 11 38  1  0
 12 39  1  0
 12 40  1  0
 14 41  1  0
 14 42  1  0
 15 43  1  0
 15 44  1  0
 17 45  1  0
 18 46  1  0
 20 47  1  0
 20 48  1  0
 21 49  1  0
 21 50  1  0
 25 51  1  0
 26 52  1  0
M  END
>  <meeko>  (9) 
{"is_sidechain": [false], "free_energy": -6.056, "intermolecular_energy": -10.967, "internal_energy": -1.396}

$$$$
