N-1H-indazol-5-yl-2-(6-methylpyridin-2-yl)quinazolin-4-amine_9998128_out
     RDKit          3D

 43 47  0  0  0  0  0  0  0  0999 V2000
   28.1130   66.8580   22.9790 C   0  0  0  0  0  0  0  0  0  0  0  0
   29.2140   66.8440   21.9730 C   0  0  0  0  0  0  0  0  0  0  0  0
   30.2490   65.9350   22.1120 C   0  0  0  0  0  0  0  0  0  0  0  0
   31.2600   65.9490   21.1560 C   0  0  0  0  0  0  0  0  0  0  0  0
   31.2050   66.8590   20.1070 C   0  0  0  0  0  0  0  0  0  0  0  0
   30.1260   67.7300   20.0550 C   0  0  0  0  0  0  0  0  0  0  0  0
   30.0020   68.6990   18.9980 C   0  0  0  0  0  0  0  0  0  0  0  0
   29.9890   69.9900   19.3670 N   0  0  0  0  0  0  0  0  0  0  0  0
   29.8720   70.8640   18.3500 C   0  0  0  0  0  0  0  0  0  0  0  0
   29.8540   72.2390   18.6900 N   0  0  0  0  0  0  0  0  0  0  0  0
   30.7860   73.0670   19.3350 C   0  0  0  0  0  0  0  0  0  0  0  0
   31.9970   73.3810   18.7040 C   0  0  0  0  0  0  0  0  0  0  0  0
   32.9480   74.2040   19.3160 C   0  0  0  0  0  0  0  0  0  0  0  0
   32.6350   74.6990   20.5850 C   0  0  0  0  0  0  0  0  0  0  0  0
   33.3280   75.5110   21.4410 N   0  0  0  0  0  0  0  0  0  0  0  0
   32.6870   75.7710   22.5930 N   0  0  0  0  0  0  0  0  0  0  0  0
   31.5410   75.0980   22.4660 C   0  0  0  0  0  0  0  0  0  0  0  0
   31.4430   74.4080   21.2390 C   0  0  0  0  0  0  0  0  0  0  0  0
   30.4980   73.5790   20.6110 C   0  0  0  0  0  0  0  0  0  0  0  0
   29.7720   70.4900   17.0120 C   0  0  0  0  0  0  0  0  0  0  0  0
   29.6510   71.4220   15.9670 C   0  0  0  0  0  0  0  0  0  0  0  0
   29.5540   70.9820   14.6510 C   0  0  0  0  0  0  0  0  0  0  0  0
   29.5790   69.6180   14.3790 C   0  0  0  0  0  0  0  0  0  0  0  0
   29.6990   68.6980   15.4250 C   0  0  0  0  0  0  0  0  0  0  0  0
   29.7980   69.1110   16.7510 C   0  0  0  0  0  0  0  0  0  0  0  0
   29.9130   68.2110   17.7440 N   0  0  0  0  0  0  0  0  0  0  0  0
   29.1260   67.7430   20.9670 N   0  0  0  0  0  0  0  0  0  0  0  0
   28.5418   66.8525   23.9920 H   0  0  0  0  0  0  0  0  0  0  0  0
   27.5040   67.7640   22.8435 H   0  0  0  0  0  0  0  0  0  0  0  0
   27.4812   65.9678   22.8435 H   0  0  0  0  0  0  0  0  0  0  0  0
   30.2714   65.2244   22.9514 H   0  0  0  0  0  0  0  0  0  0  0  0
   32.0997   65.2424   21.2303 H   0  0  0  0  0  0  0  0  0  0  0  0
   31.9935   66.8880   19.3406 H   0  0  0  0  0  0  0  0  0  0  0  0
   28.9900   72.7250   18.4110 H   0  0  0  0  0  0  0  0  0  0  0  0
   32.2045   72.9709   17.7046 H   0  0  0  0  0  0  0  0  0  0  0  0
   33.8990   74.4505   18.8211 H   0  0  0  0  0  0  0  0  0  0  0  0
   34.2600   75.8910   21.2220 H   0  0  0  0  0  0  0  0  0  0  0  0
   30.7561   75.0830   23.2365 H   0  0  0  0  0  0  0  0  0  0  0  0
   29.5486   73.3351   21.1102 H   0  0  0  0  0  0  0  0  0  0  0  0
   29.6330   72.4991   16.1897 H   0  0  0  0  0  0  0  0  0  0  0  0
   29.4581   71.7082   13.8304 H   0  0  0  0  0  0  0  0  0  0  0  0
   29.5043   69.2630   13.3405 H   0  0  0  0  0  0  0  0  0  0  0  0
   29.7156   67.6225   15.1949 H   0  0  0  0  0  0  0  0  0  0  0  0
  1  2  1  0
  2  3  2  0
  3  4  1  0
  4  5  2  0
  5  6  1  0
  6  7  1  0
  7  8  2  0
  8  9  1  0
  9 10  1  0
 10 11  1  0
 11 12  2  0
 12 13  1  0
 13 14  2  0
 14 15  1  0
 15 16  1  0
 16 17  2  0
 17 18  1  0
 18 19  2  0
  9 20  2  0
 20 21  1  0
 21 22  2  0
 22 23  1  0
 23 24  2  0
 24 25  1  0
 25 26  2  0
  6 27  2  0
 27  2  1  0
 26  7  1  0
 19 11  1  0
 25 20  1  0
 18 14  1  0
  1 28  1  0
  1 29  1  0
  1 30  1  0
  3 31  1  0
  4 32  1  0
  5 33  1  0
 10 34  1  0
 12 35  1  0
 13 36  1  0
 15 37  1  0
 17 38  1  0
 19 39  1  0
 21 40  1  0
 22 41  1  0
 23 42  1  0
 24 43  1  0
M  END
>  <meeko>  (1) 
{"is_sidechain": [false], "free_energy": -8.275, "intermolecular_energy": -9.726, "internal_energy": -0.874}

$$$$
N-1H-indazol-5-yl-2-(6-methylpyridin-2-yl)quinazolin-4-amine_9998128_out
     RDKit          3D

 43 47  0  0  0  0  0  0  0  0999 V2000
   32.1440   75.5000   22.3400 C   0  0  0  0  0  0  0  0  0  0  0  0
   31.0760   74.5120   22.0110 C   0  0  0  0  0  0  0  0  0  0  0  0
   30.1820   74.1250   22.9960 C   0  0  0  0  0  0  0  0  0  0  0  0
   29.1990   73.2020   22.6550 C   0  0  0  0  0  0  0  0  0  0  0  0
   29.1410   72.7020   21.3600 C   0  0  0  0  0  0  0  0  0  0  0  0
   30.0820   73.1510   20.4440 C   0  0  0  0  0  0  0  0  0  0  0  0
   30.0840   72.6770   19.0850 C   0  0  0  0  0  0  0  0  0  0  0  0
   30.7640   73.4150   18.1940 N   0  0  0  0  0  0  0  0  0  0  0  0
   30.7410   72.9380   16.9350 C   0  0  0  0  0  0  0  0  0  0  0  0
   31.4460   73.6830   15.9580 N   0  0  0  0  0  0  0  0  0  0  0  0
   31.1910   74.9190   15.3430 C   0  0  0  0  0  0  0  0  0  0  0  0
   31.6420   75.1580   14.0390 C   0  0  0  0  0  0  0  0  0  0  0  0
   31.4060   76.3770   13.3950 C   0  0  0  0  0  0  0  0  0  0  0  0
   30.6980   77.3450   14.1120 C   0  0  0  0  0  0  0  0  0  0  0  0
   30.3070   78.6140   13.7850 N   0  0  0  0  0  0  0  0  0  0  0  0
   29.6300   79.2500   14.7560 N   0  0  0  0  0  0  0  0  0  0  0  0
   29.5890   78.3500   15.7420 C   0  0  0  0  0  0  0  0  0  0  0  0
   30.2350   77.1410   15.4070 C   0  0  0  0  0  0  0  0  0  0  0  0
   30.4810   75.9110   16.0400 C   0  0  0  0  0  0  0  0  0  0  0  0
   30.0760   71.7740   16.5580 C   0  0  0  0  0  0  0  0  0  0  0  0
   30.0660   71.2960   15.2360 C   0  0  0  0  0  0  0  0  0  0  0  0
   29.3810   70.1260   14.9250 C   0  0  0  0  0  0  0  0  0  0  0  0
   28.7080   69.4370   15.9290 C   0  0  0  0  0  0  0  0  0  0  0  0
   28.7220   69.9200   17.2410 C   0  0  0  0  0  0  0  0  0  0  0  0
   29.4000   71.0880   17.5800 C   0  0  0  0  0  0  0  0  0  0  0  0
   29.4020   71.5380   18.8470 N   0  0  0  0  0  0  0  0  0  0  0  0
   31.0510   74.0480   20.7410 N   0  0  0  0  0  0  0  0  0  0  0  0
   32.2386   75.5875   23.4324 H   0  0  0  0  0  0  0  0  0  0  0  0
   33.1004   75.1612   21.9151 H   0  0  0  0  0  0  0  0  0  0  0  0
   31.8806   76.4798   21.9151 H   0  0  0  0  0  0  0  0  0  0  0  0
   30.2475   74.5345   24.0149 H   0  0  0  0  0  0  0  0  0  0  0  0
   28.4698   72.8689   23.4082 H   0  0  0  0  0  0  0  0  0  0  0  0
   28.3717   71.9716   21.0692 H   0  0  0  0  0  0  0  0  0  0  0  0
   32.3130   73.2300   15.6350 H   0  0  0  0  0  0  0  0  0  0  0  0
   32.1948   74.3686   13.5087 H   0  0  0  0  0  0  0  0  0  0  0  0
   31.7614   76.5650   12.3711 H   0  0  0  0  0  0  0  0  0  0  0  0
   30.5130   79.0460   12.8720 H   0  0  0  0  0  0  0  0  0  0  0  0
   29.1033   78.5319   16.7121 H   0  0  0  0  0  0  0  0  0  0  0  0
   30.1237   75.7278   17.0641 H   0  0  0  0  0  0  0  0  0  0  0  0
   30.5997   71.8471   14.4477 H   0  0  0  0  0  0  0  0  0  0  0  0
   29.3715   69.7480   13.8920 H   0  0  0  0  0  0  0  0  0  0  0  0
   28.1642   68.5111   15.6903 H   0  0  0  0  0  0  0  0  0  0  0  0
   28.1848   69.3643   18.0237 H   0  0  0  0  0  0  0  0  0  0  0  0
  1  2  1  0
  2  3  2  0
  3  4  1  0
  4  5  2  0
  5  6  1  0
  6  7  1  0
  7  8  2  0
  8  9  1  0
  9 10  1  0
 10 11  1  0
 11 12  2  0
 12 13  1  0
 13 14  2  0
 14 15  1  0
 15 16  1  0
 16 17  2  0
 17 18  1  0
 18 19  2  0
  9 20  2  0
 20 21  1  0
 21 22  2  0
 22 23  1  0
 23 24  2  0
 24 25  1  0
 25 26  2  0
  6 27  2  0
 27  2  1  0
 26  7  1  0
 19 11  1  0
 25 20  1  0
 18 14  1  0
  1 28  1  0
  1 29  1  0
  1 30  1  0
  3 31  1  0
  4 32  1  0
  5 33  1  0
 10 34  1  0
 12 35  1  0
 13 36  1  0
 15 37  1  0
 17 38  1  0
 19 39  1  0
 21 40  1  0
 22 41  1  0
 23 42  1  0
 24 43  1  0
M  END
>  <meeko>  (2) 
{"is_sidechain": [false], "free_energy": -8.254, "intermolecular_energy": -9.788, "internal_energy": -0.788}

$$$$
N-1H-indazol-5-yl-2-(6-methylpyridin-2-yl)quinazolin-4-amine_9998128_out
     RDKit          3D

 43 47  0  0  0  0  0  0  0  0999 V2000
   29.0500   70.7230   14.8150 C   0  0  0  0  0  0  0  0  0  0  0  0
   29.6140   70.3090   16.1330 C   0  0  0  0  0  0  0  0  0  0  0  0
   29.6520   68.9640   16.4620 C   0  0  0  0  0  0  0  0  0  0  0  0
   30.1830   68.6130   17.7000 C   0  0  0  0  0  0  0  0  0  0  0  0
   30.6520   69.6030   18.5550 C   0  0  0  0  0  0  0  0  0  0  0  0
   30.5700   70.9220   18.1340 C   0  0  0  0  0  0  0  0  0  0  0  0
   31.0350   72.0000   18.9670 C   0  0  0  0  0  0  0  0  0  0  0  0
   32.1570   72.6220   18.5710 N   0  0  0  0  0  0  0  0  0  0  0  0
   32.5580   73.6230   19.3770 C   0  0  0  0  0  0  0  0  0  0  0  0
   33.7380   74.3100   19.0000 N   0  0  0  0  0  0  0  0  0  0  0  0
   33.9920   75.2980   18.0360 C   0  0  0  0  0  0  0  0  0  0  0  0
   33.5300   76.6060   18.2360 C   0  0  0  0  0  0  0  0  0  0  0  0
   33.7650   77.6150   17.2960 C   0  0  0  0  0  0  0  0  0  0  0  0
   34.4820   77.2600   16.1500 C   0  0  0  0  0  0  0  0  0  0  0  0
   34.8740   77.9890   15.0610 N   0  0  0  0  0  0  0  0  0  0  0  0
   35.5600   77.2840   14.1460 N   0  0  0  0  0  0  0  0  0  0  0  0
   35.6070   76.0580   14.6730 C   0  0  0  0  0  0  0  0  0  0  0  0
   34.9550   75.9730   15.9210 C   0  0  0  0  0  0  0  0  0  0  0  0
   34.7100   74.9700   16.8740 C   0  0  0  0  0  0  0  0  0  0  0  0
   31.8840   74.0060   20.5340 C   0  0  0  0  0  0  0  0  0  0  0  0
   32.3240   75.0560   21.3600 C   0  0  0  0  0  0  0  0  0  0  0  0
   31.6040   75.3890   22.5030 C   0  0  0  0  0  0  0  0  0  0  0  0
   30.4520   74.6770   22.8200 C   0  0  0  0  0  0  0  0  0  0  0  0
   30.0220   73.6350   21.9940 C   0  0  0  0  0  0  0  0  0  0  0  0
   30.7230   73.2810   20.8440 C   0  0  0  0  0  0  0  0  0  0  0  0
   30.2950   72.2750   20.0600 N   0  0  0  0  0  0  0  0  0  0  0  0
   30.0590   71.2990   16.9390 N   0  0  0  0  0  0  0  0  0  0  0  0
   28.1730   71.3668   14.9774 H   0  0  0  0  0  0  0  0  0  0  0  0
   29.8121   71.2777   14.2480 H   0  0  0  0  0  0  0  0  0  0  0  0
   28.7492   69.8297   14.2480 H   0  0  0  0  0  0  0  0  0  0  0  0
   29.2750   68.1985   15.7679 H   0  0  0  0  0  0  0  0  0  0  0  0
   30.2312   67.5559   18.0004 H   0  0  0  0  0  0  0  0  0  0  0  0
   31.0761   69.3479   19.5374 H   0  0  0  0  0  0  0  0  0  0  0  0
   34.5720   74.0300   19.5370 H   0  0  0  0  0  0  0  0  0  0  0  0
   32.9702   76.8445   19.1524 H   0  0  0  0  0  0  0  0  0  0  0  0
   33.4018   78.6416   17.4518 H   0  0  0  0  0  0  0  0  0  0  0  0
   34.6620   78.9910   14.9500 H   0  0  0  0  0  0  0  0  0  0  0  0
   36.1016   75.2049   14.1857 H   0  0  0  0  0  0  0  0  0  0  0  0
   35.0745   73.9447   16.7128 H   0  0  0  0  0  0  0  0  0  0  0  0
   33.2367   75.6135   21.1025 H   0  0  0  0  0  0  0  0  0  0  0  0
   31.9436   76.2099   23.1517 H   0  0  0  0  0  0  0  0  0  0  0  0
   29.8783   74.9346   23.7225 H   0  0  0  0  0  0  0  0  0  0  0  0
   29.1088   73.0817   22.2583 H   0  0  0  0  0  0  0  0  0  0  0  0
  1  2  1  0
  2  3  2  0
  3  4  1  0
  4  5  2  0
  5  6  1  0
  6  7  1  0
  7  8  2  0
  8  9  1  0
  9 10  1  0
 10 11  1  0
 11 12  2  0
 12 13  1  0
 13 14  2  0
 14 15  1  0
 15 16  1  0
 16 17  2  0
 17 18  1  0
 18 19  2  0
  9 20  2  0
 20 21  1  0
 21 22  2  0
 22 23  1  0
 23 24  2  0
 24 25  1  0
 25 26  2  0
  6 27  2  0
 27  2  1  0
 26  7  1  0
 19 11  1  0
 25 20  1  0
 18 14  1  0
  1 28  1  0
  1 29  1  0
  1 30  1  0
  3 31  1  0
  4 32  1  0
  5 33  1  0
 10 34  1  0
 12 35  1  0
 13 36  1  0
 15 37  1  0
 17 38  1  0
 19 39  1  0
 21 40  1  0
 22 41  1  0
 23 42  1  0
 24 43  1  0
M  END
>  <meeko>  (3) 
{"is_sidechain": [false], "free_energy": -8.195, "intermolecular_energy": -9.636, "internal_energy": -0.871}

$$$$
N-1H-indazol-5-yl-2-(6-methylpyridin-2-yl)quinazolin-4-amine_9998128_out
     RDKit          3D

 43 47  0  0  0  0  0  0  0  0999 V2000
   25.6480   79.6350   18.8360 C   0  0  0  0  0  0  0  0  0  0  0  0
   27.1300   79.8010   18.8380 C   0  0  0  0  0  0  0  0  0  0  0  0
   27.6970   80.8530   18.1370 C   0  0  0  0  0  0  0  0  0  0  0  0
   29.0820   80.9780   18.1580 C   0  0  0  0  0  0  0  0  0  0  0  0
   29.8460   80.0620   18.8720 C   0  0  0  0  0  0  0  0  0  0  0  0
   29.1850   79.0430   19.5430 C   0  0  0  0  0  0  0  0  0  0  0  0
   29.9110   78.0580   20.3010 C   0  0  0  0  0  0  0  0  0  0  0  0
   29.3250   76.8590   20.4410 N   0  0  0  0  0  0  0  0  0  0  0  0
   30.0360   75.9670   21.1560 C   0  0  0  0  0  0  0  0  0  0  0  0
   29.4580   74.6850   21.3310 N   0  0  0  0  0  0  0  0  0  0  0  0
   29.1230   73.6650   20.4270 C   0  0  0  0  0  0  0  0  0  0  0  0
   27.9410   73.7520   19.6800 C   0  0  0  0  0  0  0  0  0  0  0  0
   27.5770   72.7550   18.7690 C   0  0  0  0  0  0  0  0  0  0  0  0
   28.4460   71.6690   18.6370 C   0  0  0  0  0  0  0  0  0  0  0  0
   28.3900   70.5490   17.8540 N   0  0  0  0  0  0  0  0  0  0  0  0
   29.4330   69.7160   18.0100 N   0  0  0  0  0  0  0  0  0  0  0  0
   30.1830   70.3290   18.9280 C   0  0  0  0  0  0  0  0  0  0  0  0
   29.6270   71.5510   19.3620 C   0  0  0  0  0  0  0  0  0  0  0  0
   29.9790   72.5610   20.2740 C   0  0  0  0  0  0  0  0  0  0  0  0
   31.2820   76.2360   21.7160 C   0  0  0  0  0  0  0  0  0  0  0  0
   32.0050   75.2870   22.4600 C   0  0  0  0  0  0  0  0  0  0  0  0
   33.2460   75.6200   22.9930 C   0  0  0  0  0  0  0  0  0  0  0  0
   33.7620   76.8960   22.7860 C   0  0  0  0  0  0  0  0  0  0  0  0
   33.0360   77.8340   22.0460 C   0  0  0  0  0  0  0  0  0  0  0  0
   31.7920   77.5260   21.5010 C   0  0  0  0  0  0  0  0  0  0  0  0
   31.1080   78.4410   20.7920 N   0  0  0  0  0  0  0  0  0  0  0  0
   27.8410   78.8910   19.5420 N   0  0  0  0  0  0  0  0  0  0  0  0
   25.2822   79.5940   19.8726 H   0  0  0  0  0  0  0  0  0  0  0  0
   25.1843   80.4868   18.3170 H   0  0  0  0  0  0  0  0  0  0  0  0
   25.3843   78.7017   18.3170 H   0  0  0  0  0  0  0  0  0  0  0  0
   27.0714   81.5670   17.5813 H   0  0  0  0  0  0  0  0  0  0  0  0
   29.5709   81.7983   17.6119 H   0  0  0  0  0  0  0  0  0  0  0  0
   30.9426   80.1426   18.9041 H   0  0  0  0  0  0  0  0  0  0  0  0
   29.2400   74.4580   22.3120 H   0  0  0  0  0  0  0  0  0  0  0  0
   27.2842   74.6243   19.8130 H   0  0  0  0  0  0  0  0  0  0  0  0
   26.6486   72.8229   18.1830 H   0  0  0  0  0  0  0  0  0  0  0  0
   27.6150   70.3590   17.2020 H   0  0  0  0  0  0  0  0  0  0  0  0
   31.1335   69.9246   19.3061 H   0  0  0  0  0  0  0  0  0  0  0  0
   30.9084   72.4885   20.8579 H   0  0  0  0  0  0  0  0  0  0  0  0
   31.5893   74.2813   22.6206 H   0  0  0  0  0  0  0  0  0  0  0  0
   33.8157   74.8799   23.5741 H   0  0  0  0  0  0  0  0  0  0  0  0
   34.7423   77.1668   23.2052 H   0  0  0  0  0  0  0  0  0  0  0  0
   33.4570   78.8383   21.8907 H   0  0  0  0  0  0  0  0  0  0  0  0
  1  2  1  0
  2  3  2  0
  3  4  1  0
  4  5  2  0
  5  6  1  0
  6  7  1  0
  7  8  2  0
  8  9  1  0
  9 10  1  0
 10 11  1  0
 11 12  2  0
 12 13  1  0
 13 14  2  0
 14 15  1  0
 15 16  1  0
 16 17  2  0
 17 18  1  0
 18 19  2  0
  9 20  2  0
 20 21  1  0
 21 22  2  0
 22 23  1  0
 23 24  2  0
 24 25  1  0
 25 26  2  0
  6 27  2  0
 27  2  1  0
 26  7  1  0
 19 11  1  0
 25 20  1  0
 18 14  1  0
  1 28  1  0
  1 29  1  0
  1 30  1  0
  3 31  1  0
  4 32  1  0
  5 33  1  0
 10 34  1  0
 12 35  1  0
 13 36  1  0
 15 37  1  0
 17 38  1  0
 19 39  1  0
 21 40  1  0
 22 41  1  0
 23 42  1  0
 24 43  1  0
M  END
>  <meeko>  (4) 
{"is_sidechain": [false], "free_energy": -8.157, "intermolecular_energy": -9.613, "internal_energy": -0.849}

$$$$
N-1H-indazol-5-yl-2-(6-methylpyridin-2-yl)quinazolin-4-amine_9998128_out
     RDKit          3D

 43 47  0  0  0  0  0  0  0  0999 V2000
   30.6300   77.7360   12.5460 C   0  0  0  0  0  0  0  0  0  0  0  0
   31.6320   76.7080   12.9510 C   0  0  0  0  0  0  0  0  0  0  0  0
   32.9410   76.8270   12.5140 C   0  0  0  0  0  0  0  0  0  0  0  0
   33.8500   75.8500   12.9090 C   0  0  0  0  0  0  0  0  0  0  0  0
   33.4270   74.8010   13.7160 C   0  0  0  0  0  0  0  0  0  0  0  0
   32.0940   74.7700   14.1010 C   0  0  0  0  0  0  0  0  0  0  0  0
   31.5850   73.7130   14.9360 C   0  0  0  0  0  0  0  0  0  0  0  0
   32.0570   73.6610   16.1910 N   0  0  0  0  0  0  0  0  0  0  0  0
   31.5570   72.6600   16.9390 C   0  0  0  0  0  0  0  0  0  0  0  0
   32.0250   72.5640   18.2730 N   0  0  0  0  0  0  0  0  0  0  0  0
   31.7460   73.3090   19.4300 C   0  0  0  0  0  0  0  0  0  0  0  0
   30.7290   72.8940   20.3000 C   0  0  0  0  0  0  0  0  0  0  0  0
   30.4240   73.6100   21.4620 C   0  0  0  0  0  0  0  0  0  0  0  0
   31.1810   74.7580   21.7160 C   0  0  0  0  0  0  0  0  0  0  0  0
   31.1410   75.6650   22.7390 N   0  0  0  0  0  0  0  0  0  0  0  0
   32.0450   76.6540   22.6320 N   0  0  0  0  0  0  0  0  0  0  0  0
   32.6850   76.3660   21.4960 C   0  0  0  0  0  0  0  0  0  0  0  0
   32.1970   75.1970   20.8740 C   0  0  0  0  0  0  0  0  0  0  0  0
   32.4910   74.4670   19.7110 C   0  0  0  0  0  0  0  0  0  0  0  0
   30.6240   71.7360   16.4750 C   0  0  0  0  0  0  0  0  0  0  0  0
   30.1160   70.6980   17.2760 C   0  0  0  0  0  0  0  0  0  0  0  0
   29.1850   69.8080   16.7510 C   0  0  0  0  0  0  0  0  0  0  0  0
   28.7620   69.9530   15.4330 C   0  0  0  0  0  0  0  0  0  0  0  0
   29.2730   70.9880   14.6440 C   0  0  0  0  0  0  0  0  0  0  0  0
   30.2060   71.8930   15.1440 C   0  0  0  0  0  0  0  0  0  0  0  0
   30.6850   72.8830   14.3700 N   0  0  0  0  0  0  0  0  0  0  0  0
   31.1840   75.7020   13.7360 N   0  0  0  0  0  0  0  0  0  0  0  0
   30.1871   78.1904   13.4446 H   0  0  0  0  0  0  0  0  0  0  0  0
   31.1251   78.5148   11.9474 H   0  0  0  0  0  0  0  0  0  0  0  0
   29.8388   77.2610   11.9474 H   0  0  0  0  0  0  0  0  0  0  0  0
   33.2521   77.6668   11.8753 H   0  0  0  0  0  0  0  0  0  0  0  0
   34.8992   75.9080   12.5836 H   0  0  0  0  0  0  0  0  0  0  0  0
   34.1282   74.0180   14.0403 H   0  0  0  0  0  0  0  0  0  0  0  0
   32.7020   71.8020   18.4220 H   0  0  0  0  0  0  0  0  0  0  0  0
   30.1575   71.9843   20.0636 H   0  0  0  0  0  0  0  0  0  0  0  0
   29.6252   73.2850   22.1449 H   0  0  0  0  0  0  0  0  0  0  0  0
   30.4770   75.5970   23.5230 H   0  0  0  0  0  0  0  0  0  0  0  0
   33.5053   76.9751   21.0884 H   0  0  0  0  0  0  0  0  0  0  0  0
   33.2909   74.7960   19.0314 H   0  0  0  0  0  0  0  0  0  0  0  0
   30.4546   70.5899   18.3170 H   0  0  0  0  0  0  0  0  0  0  0  0
   28.7853   68.9942   17.3739 H   0  0  0  0  0  0  0  0  0  0  0  0
   28.0253   69.2530   15.0119 H   0  0  0  0  0  0  0  0  0  0  0  0
   28.9300   71.0899   13.6038 H   0  0  0  0  0  0  0  0  0  0  0  0
  1  2  1  0
  2  3  2  0
  3  4  1  0
  4  5  2  0
  5  6  1  0
  6  7  1  0
  7  8  2  0
  8  9  1  0
  9 10  1  0
 10 11  1  0
 11 12  2  0
 12 13  1  0
 13 14  2  0
 14 15  1  0
 15 16  1  0
 16 17  2  0
 17 18  1  0
 18 19  2  0
  9 20  2  0
 20 21  1  0
 21 22  2  0
 22 23  1  0
 23 24  2  0
 24 25  1  0
 25 26  2  0
  6 27  2  0
 27  2  1  0
 26  7  1  0
 19 11  1  0
 25 20  1  0
 18 14  1  0
  1 28  1  0
  1 29  1  0
  1 30  1  0
  3 31  1  0
  4 32  1  0
  5 33  1  0
 10 34  1  0
 12 35  1  0
 13 36  1  0
 15 37  1  0
 17 38  1  0
 19 39  1  0
 21 40  1  0
 22 41  1  0
 23 42  1  0
 24 43  1  0
M  END
>  <meeko>  (5) 
{"is_sidechain": [false], "free_energy": -8.104, "intermolecular_energy": -9.547, "internal_energy": -0.852}

$$$$
N-1H-indazol-5-yl-2-(6-methylpyridin-2-yl)quinazolin-4-amine_9998128_out
     RDKit          3D

 43 47  0  0  0  0  0  0  0  0999 V2000
   33.1120   77.3420   22.2410 C   0  0  0  0  0  0  0  0  0  0  0  0
   32.2530   76.2080   21.7900 C   0  0  0  0  0  0  0  0  0  0  0  0
   31.6210   75.4170   22.7370 C   0  0  0  0  0  0  0  0  0  0  0  0
   30.8290   74.3670   22.2830 C   0  0  0  0  0  0  0  0  0  0  0  0
   30.6950   74.1450   20.9180 C   0  0  0  0  0  0  0  0  0  0  0  0
   31.3680   74.9920   20.0490 C   0  0  0  0  0  0  0  0  0  0  0  0
   31.2760   74.8220   18.6230 C   0  0  0  0  0  0  0  0  0  0  0  0
   30.4270   73.8780   18.1860 N   0  0  0  0  0  0  0  0  0  0  0  0
   30.3700   73.7500   16.8470 C   0  0  0  0  0  0  0  0  0  0  0  0
   29.4860   72.7660   16.3380 N   0  0  0  0  0  0  0  0  0  0  0  0
   29.6080   71.3780   16.1730 C   0  0  0  0  0  0  0  0  0  0  0  0
   29.4470   70.5260   17.2730 C   0  0  0  0  0  0  0  0  0  0  0  0
   29.5610   69.1380   17.1450 C   0  0  0  0  0  0  0  0  0  0  0  0
   29.8410   68.6400   15.8700 C   0  0  0  0  0  0  0  0  0  0  0  0
   30.0130   67.3630   15.4100 N   0  0  0  0  0  0  0  0  0  0  0  0
   30.2740   67.2830   14.0940 N   0  0  0  0  0  0  0  0  0  0  0  0
   30.2690   68.5580   13.7010 C   0  0  0  0  0  0  0  0  0  0  0  0
   30.0060   69.4560   14.7570 C   0  0  0  0  0  0  0  0  0  0  0  0
   29.8890   70.8490   14.9020 C   0  0  0  0  0  0  0  0  0  0  0  0
   31.1190   74.5200   15.9600 C   0  0  0  0  0  0  0  0  0  0  0  0
   31.0420   74.3670   14.5650 C   0  0  0  0  0  0  0  0  0  0  0  0
   31.8180   75.1690   13.7340 C   0  0  0  0  0  0  0  0  0  0  0  0
   32.6670   76.1180   14.2940 C   0  0  0  0  0  0  0  0  0  0  0  0
   32.7380   76.2630   15.6830 C   0  0  0  0  0  0  0  0  0  0  0  0
   31.9720   75.4740   16.5370 C   0  0  0  0  0  0  0  0  0  0  0  0
   32.0530   75.6280   17.8710 N   0  0  0  0  0  0  0  0  0  0  0  0
   32.1460   76.0210   20.4560 N   0  0  0  0  0  0  0  0  0  0  0  0
   33.1338   77.3708   23.3404 H   0  0  0  0  0  0  0  0  0  0  0  0
   34.1336   77.2032   21.8575 H   0  0  0  0  0  0  0  0  0  0  0  0
   32.7017   78.2878   21.8575 H   0  0  0  0  0  0  0  0  0  0  0  0
   31.7418   75.6132   23.8126 H   0  0  0  0  0  0  0  0  0  0  0  0
   30.3110   73.7152   23.0019 H   0  0  0  0  0  0  0  0  0  0  0  0
   30.0732   73.3214   20.5371 H   0  0  0  0  0  0  0  0  0  0  0  0
   28.5790   73.1440   16.0270 H   0  0  0  0  0  0  0  0  0  0  0  0
   29.2259   70.9584   18.2600 H   0  0  0  0  0  0  0  0  0  0  0  0
   29.4359   68.4687   18.0090 H   0  0  0  0  0  0  0  0  0  0  0  0
   29.9480   66.5340   16.0180 H   0  0  0  0  0  0  0  0  0  0  0  0
   30.4507   68.8755   12.6636 H   0  0  0  0  0  0  0  0  0  0  0  0
   30.0153   71.5140   14.0349 H   0  0  0  0  0  0  0  0  0  0  0  0
   30.3686   73.6136   14.1304 H   0  0  0  0  0  0  0  0  0  0  0  0
   31.7605   75.0534   12.6416 H   0  0  0  0  0  0  0  0  0  0  0  0
   33.2835   76.7554   13.6431 H   0  0  0  0  0  0  0  0  0  0  0  0
   33.4145   77.0176   16.1107 H   0  0  0  0  0  0  0  0  0  0  0  0
  1  2  1  0
  2  3  2  0
  3  4  1  0
  4  5  2  0
  5  6  1  0
  6  7  1  0
  7  8  2  0
  8  9  1  0
  9 10  1  0
 10 11  1  0
 11 12  2  0
 12 13  1  0
 13 14  2  0
 14 15  1  0
 15 16  1  0
 16 17  2  0
 17 18  1  0
 18 19  2  0
  9 20  2  0
 20 21  1  0
 21 22  2  0
 22 23  1  0
 23 24  2  0
 24 25  1  0
 25 26  2  0
  6 27  2  0
 27  2  1  0
 26  7  1  0
 19 11  1  0
 25 20  1  0
 18 14  1  0
  1 28  1  0
  1 29  1  0
  1 30  1  0
  3 31  1  0
  4 32  1  0
  5 33  1  0
 10 34  1  0
 12 35  1  0
 13 36  1  0
 15 37  1  0
 17 38  1  0
 19 39  1  0
 21 40  1  0
 22 41  1  0
 23 42  1  0
 24 43  1  0
M  END
>  <meeko>  (6) 
{"is_sidechain": [false], "free_energy": -8.02, "intermolecular_energy": -9.413, "internal_energy": -0.887}

$$$$
N-1H-indazol-5-yl-2-(6-methylpyridin-2-yl)quinazolin-4-amine_9998128_out
     RDKit          3D

 43 47  0  0  0  0  0  0  0  0999 V2000
   33.8570   72.5940   14.8770 C   0  0  0  0  0  0  0  0  0  0  0  0
   34.1930   74.0430   14.9870 C   0  0  0  0  0  0  0  0  0  0  0  0
   34.7290   74.7010   13.8920 C   0  0  0  0  0  0  0  0  0  0  0  0
   35.0320   76.0520   14.0280 C   0  0  0  0  0  0  0  0  0  0  0  0
   34.7940   76.6930   15.2380 C   0  0  0  0  0  0  0  0  0  0  0  0
   34.2540   75.9480   16.2770 C   0  0  0  0  0  0  0  0  0  0  0  0
   33.9820   76.5450   17.5580 C   0  0  0  0  0  0  0  0  0  0  0  0
   33.7040   75.7010   18.5650 N   0  0  0  0  0  0  0  0  0  0  0  0
   33.4550   76.2990   19.7450 C   0  0  0  0  0  0  0  0  0  0  0  0
   33.1570   75.4490   20.8400 N   0  0  0  0  0  0  0  0  0  0  0  0
   32.0090   74.7200   21.1880 C   0  0  0  0  0  0  0  0  0  0  0  0
   31.3300   75.0120   22.3770 C   0  0  0  0  0  0  0  0  0  0  0  0
   30.1820   74.3070   22.7550 C   0  0  0  0  0  0  0  0  0  0  0  0
   29.7450   73.2990   21.8920 C   0  0  0  0  0  0  0  0  0  0  0  0
   28.6830   72.4390   21.9610 N   0  0  0  0  0  0  0  0  0  0  0  0
   28.5900   71.5950   20.9200 N   0  0  0  0  0  0  0  0  0  0  0  0
   29.6330   71.9290   20.1580 C   0  0  0  0  0  0  0  0  0  0  0  0
   30.3950   72.9840   20.7040 C   0  0  0  0  0  0  0  0  0  0  0  0
   31.5470   73.7010   20.3390 C   0  0  0  0  0  0  0  0  0  0  0  0
   33.4770   77.6780   19.9380 C   0  0  0  0  0  0  0  0  0  0  0  0
   33.2130   78.2790   21.1810 C   0  0  0  0  0  0  0  0  0  0  0  0
   33.2510   79.6630   21.3060 C   0  0  0  0  0  0  0  0  0  0  0  0
   33.5500   80.4450   20.1950 C   0  0  0  0  0  0  0  0  0  0  0  0
   33.8110   79.8400   18.9620 C   0  0  0  0  0  0  0  0  0  0  0  0
   33.7800   78.4560   18.8090 C   0  0  0  0  0  0  0  0  0  0  0  0
   34.0340   77.8910   17.6150 N   0  0  0  0  0  0  0  0  0  0  0  0
   33.9480   74.6340   16.1790 N   0  0  0  0  0  0  0  0  0  0  0  0
   33.7571   72.1633   15.8842 H   0  0  0  0  0  0  0  0  0  0  0  0
   32.9081   72.4779   14.3328 H   0  0  0  0  0  0  0  0  0  0  0  0
   34.6580   72.0722   14.3328 H   0  0  0  0  0  0  0  0  0  0  0  0
   34.9094   74.1718   12.9447 H   0  0  0  0  0  0  0  0  0  0  0  0
   35.4581   76.6105   13.1815 H   0  0  0  0  0  0  0  0  0  0  0  0
   35.0269   77.7601   15.3684 H   0  0  0  0  0  0  0  0  0  0  0  0
   33.9330   75.3480   21.5100 H   0  0  0  0  0  0  0  0  0  0  0  0
   31.7075   75.8137   23.0287 H   0  0  0  0  0  0  0  0  0  0  0  0
   29.6480   74.5360   23.6890 H   0  0  0  0  0  0  0  0  0  0  0  0
   28.0130   72.4380   22.7440 H   0  0  0  0  0  0  0  0  0  0  0  0
   29.8735   71.4346   19.2053 H   0  0  0  0  0  0  0  0  0  0  0  0
   32.0780   73.4682   19.4042 H   0  0  0  0  0  0  0  0  0  0  0  0
   32.9763   77.6542   22.0548 H   0  0  0  0  0  0  0  0  0  0  0  0
   33.0459   80.1368   22.2773 H   0  0  0  0  0  0  0  0  0  0  0  0
   33.5811   81.5407   20.2868 H   0  0  0  0  0  0  0  0  0  0  0  0
   34.0463   80.4716   18.0927 H   0  0  0  0  0  0  0  0  0  0  0  0
  1  2  1  0
  2  3  2  0
  3  4  1  0
  4  5  2  0
  5  6  1  0
  6  7  1  0
  7  8  2  0
  8  9  1  0
  9 10  1  0
 10 11  1  0
 11 12  2  0
 12 13  1  0
 13 14  2  0
 14 15  1  0
 15 16  1  0
 16 17  2  0
 17 18  1  0
 18 19  2  0
  9 20  2  0
 20 21  1  0
 21 22  2  0
 22 23  1  0
 23 24  2  0
 24 25  1  0
 25 26  2  0
  6 27  2  0
 27  2  1  0
 26  7  1  0
 19 11  1  0
 25 20  1  0
 18 14  1  0
  1 28  1  0
  1 29  1  0
  1 30  1  0
  3 31  1  0
  4 32  1  0
  5 33  1  0
 10 34  1  0
 12 35  1  0
 13 36  1  0
 15 37  1  0
 17 38  1  0
 19 39  1  0
 21 40  1  0
 22 41  1  0
 23 42  1  0
 24 43  1  0
M  END
>  <meeko>  (7) 
{"is_sidechain": [false], "free_energy": -7.817, "intermolecular_energy": -9.193, "internal_energy": -0.869}

$$$$
N-1H-indazol-5-yl-2-(6-methylpyridin-2-yl)quinazolin-4-amine_9998128_out
     RDKit          3D

 43 47  0  0  0  0  0  0  0  0999 V2000
   34.7800   73.1320   14.1090 C   0  0  0  0  0  0  0  0  0  0  0  0
   34.4810   74.0710   15.2290 C   0  0  0  0  0  0  0  0  0  0  0  0
   35.0860   75.3170   15.2510 C   0  0  0  0  0  0  0  0  0  0  0  0
   34.7870   76.1670   16.3100 C   0  0  0  0  0  0  0  0  0  0  0  0
   33.9030   75.7520   17.2990 C   0  0  0  0  0  0  0  0  0  0  0  0
   33.3480   74.4850   17.1880 C   0  0  0  0  0  0  0  0  0  0  0  0
   32.4260   73.9880   18.1750 C   0  0  0  0  0  0  0  0  0  0  0  0
   31.7340   72.8850   17.8470 N   0  0  0  0  0  0  0  0  0  0  0  0
   30.8830   72.4530   18.7970 C   0  0  0  0  0  0  0  0  0  0  0  0
   30.1300   71.2900   18.4970 N   0  0  0  0  0  0  0  0  0  0  0  0
   30.3660   70.2050   17.6380 C   0  0  0  0  0  0  0  0  0  0  0  0
   31.1210   69.1120   18.0830 C   0  0  0  0  0  0  0  0  0  0  0  0
   31.3740   68.0140   17.2550 C   0  0  0  0  0  0  0  0  0  0  0  0
   30.8390   68.0560   15.9650 C   0  0  0  0  0  0  0  0  0  0  0  0
   30.8980   67.1670   14.9260 N   0  0  0  0  0  0  0  0  0  0  0  0
   30.2460   67.5680   13.8220 N   0  0  0  0  0  0  0  0  0  0  0  0
   29.7530   68.7590   14.1700 C   0  0  0  0  0  0  0  0  0  0  0  0
   30.0850   69.1240   15.4920 C   0  0  0  0  0  0  0  0  0  0  0  0
   29.8390   70.2200   16.3360 C   0  0  0  0  0  0  0  0  0  0  0  0
   30.7130   73.0770   20.0300 C   0  0  0  0  0  0  0  0  0  0  0  0
   29.8180   72.6060   21.0060 C   0  0  0  0  0  0  0  0  0  0  0  0
   29.6950   73.2760   22.2190 C   0  0  0  0  0  0  0  0  0  0  0  0
   30.4620   74.4120   22.4560 C   0  0  0  0  0  0  0  0  0  0  0  0
   31.3500   74.8750   21.4790 C   0  0  0  0  0  0  0  0  0  0  0  0
   31.4930   74.2220   20.2570 C   0  0  0  0  0  0  0  0  0  0  0  0
   32.3520   74.6810   19.3300 N   0  0  0  0  0  0  0  0  0  0  0  0
   33.6170   73.6330   16.1730 N   0  0  0  0  0  0  0  0  0  0  0  0
   35.0897   72.1593   14.5188 H   0  0  0  0  0  0  0  0  0  0  0  0
   33.8796   72.9997   13.4912 H   0  0  0  0  0  0  0  0  0  0  0  0
   35.5912   73.5447   13.4912 H   0  0  0  0  0  0  0  0  0  0  0  0
   35.7811   75.6243   14.4557 H   0  0  0  0  0  0  0  0  0  0  0  0
   35.2483   77.1641   16.3648 H   0  0  0  0  0  0  0  0  0  0  0  0
   33.6508   76.4085   18.1448 H   0  0  0  0  0  0  0  0  0  0  0  0
   29.2380   71.2310   19.0070 H   0  0  0  0  0  0  0  0  0  0  0  0
   31.5238   69.1177   19.1066 H   0  0  0  0  0  0  0  0  0  0  0  0
   31.9675   67.1559   17.6035 H   0  0  0  0  0  0  0  0  0  0  0  0
   31.3980   66.2690   14.9850 H   0  0  0  0  0  0  0  0  0  0  0  0
   29.1519   69.3888   13.4976 H   0  0  0  0  0  0  0  0  0  0  0  0
   29.2439   71.0752   15.9832 H   0  0  0  0  0  0  0  0  0  0  0  0
   29.2146   71.7073   20.8107 H   0  0  0  0  0  0  0  0  0  0  0  0
   28.9960   72.9099   22.9854 H   0  0  0  0  0  0  0  0  0  0  0  0
   30.3702   74.9470   23.4128 H   0  0  0  0  0  0  0  0  0  0  0  0
   31.9490   75.7753   21.6805 H   0  0  0  0  0  0  0  0  0  0  0  0
  1  2  1  0
  2  3  2  0
  3  4  1  0
  4  5  2  0
  5  6  1  0
  6  7  1  0
  7  8  2  0
  8  9  1  0
  9 10  1  0
 10 11  1  0
 11 12  2  0
 12 13  1  0
 13 14  2  0
 14 15  1  0
 15 16  1  0
 16 17  2  0
 17 18  1  0
 18 19  2  0
  9 20  2  0
 20 21  1  0
 21 22  2  0
 22 23  1  0
 23 24  2  0
 24 25  1  0
 25 26  2  0
  6 27  2  0
 27  2  1  0
 26  7  1  0
 19 11  1  0
 25 20  1  0
 18 14  1  0
  1 28  1  0
  1 29  1  0
  1 30  1  0
  3 31  1  0
  4 32  1  0
  5 33  1  0
 10 34  1  0
 12 35  1  0
 13 36  1  0
 15 37  1  0
 17 38  1  0
 19 39  1  0
 21 40  1  0
 22 41  1  0
 23 42  1  0
 24 43  1  0
M  END
>  <meeko>  (8) 
{"is_sidechain": [false], "free_energy": -7.797, "intermolecular_energy": -9.151, "internal_energy": -0.887}

$$$$
N-1H-indazol-5-yl-2-(6-methylpyridin-2-yl)quinazolin-4-amine_9998128_out
     RDKit          3D

 43 47  0  0  0  0  0  0  0  0999 V2000
   29.0840   70.6000   14.8400 C   0  0  0  0  0  0  0  0  0  0  0  0
   30.2940   70.5100   15.7080 C   0  0  0  0  0  0  0  0  0  0  0  0
   31.2710   69.5730   15.4150 C   0  0  0  0  0  0  0  0  0  0  0  0
   32.3860   69.5150   16.2460 C   0  0  0  0  0  0  0  0  0  0  0  0
   32.4870   70.3830   17.3260 C   0  0  0  0  0  0  0  0  0  0  0  0
   31.4540   71.2870   17.5360 C   0  0  0  0  0  0  0  0  0  0  0  0
   31.4900   72.2150   18.6360 C   0  0  0  0  0  0  0  0  0  0  0  0
   32.4850   73.1170   18.6260 N   0  0  0  0  0  0  0  0  0  0  0  0
   32.4830   73.9660   19.6700 C   0  0  0  0  0  0  0  0  0  0  0  0
   33.5140   74.9380   19.7030 N   0  0  0  0  0  0  0  0  0  0  0  0
   33.6630   76.1830   19.0720 C   0  0  0  0  0  0  0  0  0  0  0  0
   33.8270   76.2480   17.6830 C   0  0  0  0  0  0  0  0  0  0  0  0
   33.9770   77.4700   17.0200 C   0  0  0  0  0  0  0  0  0  0  0  0
   33.9560   78.6240   17.8080 C   0  0  0  0  0  0  0  0  0  0  0  0
   34.0730   79.9490   17.4850 N   0  0  0  0  0  0  0  0  0  0  0  0
   34.0020   80.7800   18.5380 N   0  0  0  0  0  0  0  0  0  0  0  0
   33.8330   79.9540   19.5730 C   0  0  0  0  0  0  0  0  0  0  0  0
   33.7940   78.5960   19.1890 C   0  0  0  0  0  0  0  0  0  0  0  0
   33.6450   77.3600   19.8390 C   0  0  0  0  0  0  0  0  0  0  0  0
   31.5390   73.9380   20.6930 C   0  0  0  0  0  0  0  0  0  0  0  0
   31.5580   74.8360   21.7750 C   0  0  0  0  0  0  0  0  0  0  0  0
   30.5850   74.7530   22.7650 C   0  0  0  0  0  0  0  0  0  0  0  0
   29.5970   73.7780   22.6760 C   0  0  0  0  0  0  0  0  0  0  0  0
   29.5850   72.8880   21.5980 C   0  0  0  0  0  0  0  0  0  0  0  0
   30.5470   72.9490   20.5930 C   0  0  0  0  0  0  0  0  0  0  0  0
   30.5200   72.0850   19.5630 N   0  0  0  0  0  0  0  0  0  0  0  0
   30.3570   71.3700   16.7500 N   0  0  0  0  0  0  0  0  0  0  0  0
   28.1849   70.6669   15.4701 H   0  0  0  0  0  0  0  0  0  0  0  0
   29.1541   71.4954   14.2049 H   0  0  0  0  0  0  0  0  0  0  0  0
   29.0209   69.7041   14.2049 H   0  0  0  0  0  0  0  0  0  0  0  0
   31.1690   68.8966   14.5535 H   0  0  0  0  0  0  0  0  0  0  0  0
   33.1844   68.7845   16.0484 H   0  0  0  0  0  0  0  0  0  0  0  0
   33.3596   70.3550   17.9951 H   0  0  0  0  0  0  0  0  0  0  0  0
   34.3080   74.6800   20.3060 H   0  0  0  0  0  0  0  0  0  0  0  0
   33.8381   75.3156   17.0994 H   0  0  0  0  0  0  0  0  0  0  0  0
   34.1056   77.5206   15.9287 H   0  0  0  0  0  0  0  0  0  0  0  0
   34.2050   80.2800   16.5190 H   0  0  0  0  0  0  0  0  0  0  0  0
   33.7346   80.2951   20.6141 H   0  0  0  0  0  0  0  0  0  0  0  0
   33.5163   77.3142   20.9305 H   0  0  0  0  0  0  0  0  0  0  0  0
   32.3427   75.6043   21.8383 H   0  0  0  0  0  0  0  0  0  0  0  0
   30.5966   75.4537   23.6128 H   0  0  0  0  0  0  0  0  0  0  0  0
   28.8238   73.7071   23.4552 H   0  0  0  0  0  0  0  0  0  0  0  0
   28.7976   72.1219   21.5424 H   0  0  0  0  0  0  0  0  0  0  0  0
  1  2  1  0
  2  3  2  0
  3  4  1  0
  4  5  2  0
  5  6  1  0
  6  7  1  0
  7  8  2  0
  8  9  1  0
  9 10  1  0
 10 11  1  0
 11 12  2  0
 12 13  1  0
 13 14  2  0
 14 15  1  0
 15 16  1  0
 16 17  2  0
 17 18  1  0
 18 19  2  0
  9 20  2  0
 20 21  1  0
 21 22  2  0
 22 23  1  0
 23 24  2  0
 24 25  1  0
 25 26  2  0
  6 27  2  0
 27  2  1  0
 26  7  1  0
 19 11  1  0
 25 20  1  0
 18 14  1  0
  1 28  1  0
  1 29  1  0
  1 30  1  0
  3 31  1  0
  4 32  1  0
  5 33  1  0
 10 34  1  0
 12 35  1  0
 13 36  1  0
 15 37  1  0
 17 38  1  0
 19 39  1  0
 21 40  1  0
 22 41  1  0
 23 42  1  0
 24 43  1  0
M  END
>  <meeko>  (9) 
{"is_sidechain": [false], "free_energy": -7.734, "intermolecular_energy": -9.125, "internal_energy": -0.839}

$$$$
