SANGUINARINE_5154_out
     RDKit          3D

 39 44  0  0  0  0  0  0  0  0999 V2000
   33.3670   72.8780   17.7450 C   0  0  0  0  0  0  0  0  0  0  0  0
   32.4290   73.1180   18.8410 N   0  0  0  0  0  0  0  0  0  0  0  0
   32.7650   74.2640   19.4360 C   0  0  0  0  0  0  0  0  0  0  0  0
   32.0450   74.7410   20.5230 C   0  0  0  0  0  0  0  0  0  0  0  0
   32.3820   75.9350   21.1590 C   0  0  0  0  0  0  0  0  0  0  0  0
   31.6750   76.4130   22.2350 C   0  0  0  0  0  0  0  0  0  0  0  0
   30.5940   75.7340   22.7400 C   0  0  0  0  0  0  0  0  0  0  0  0
   30.2350   74.5310   22.1200 C   0  0  0  0  0  0  0  0  0  0  0  0
   30.9430   73.9960   20.9980 C   0  0  0  0  0  0  0  0  0  0  0  0
   30.6120   72.7690   20.3300 C   0  0  0  0  0  0  0  0  0  0  0  0
   29.5380   71.9410   20.7120 C   0  0  0  0  0  0  0  0  0  0  0  0
   29.2440   70.7520   20.0420 C   0  0  0  0  0  0  0  0  0  0  0  0
   30.0080   70.3300   18.9550 C   0  0  0  0  0  0  0  0  0  0  0  0
   29.6800   69.1250   18.3060 C   0  0  0  0  0  0  0  0  0  0  0  0
   30.4430   68.7240   17.2340 C   0  0  0  0  0  0  0  0  0  0  0  0
   31.5040   69.4680   16.7970 C   0  0  0  0  0  0  0  0  0  0  0  0
   31.8580   70.6560   17.4080 C   0  0  0  0  0  0  0  0  0  0  0  0
   31.1090   71.1230   18.5190 C   0  0  0  0  0  0  0  0  0  0  0  0
   31.3940   72.3370   19.2200 C   0  0  0  0  0  0  0  0  0  0  0  0
   32.1290   68.9040   15.7270 O   0  0  0  0  0  0  0  0  0  0  0  0
   31.3360   67.7140   15.5440 C   0  0  0  0  0  0  0  0  0  0  0  0
   30.2620   67.5930   16.4980 O   0  0  0  0  0  0  0  0  0  0  0  0
   32.1670   77.5900   22.7060 O   0  0  0  0  0  0  0  0  0  0  0  0
   33.2690   77.8080   21.8060 C   0  0  0  0  0  0  0  0  0  0  0  0
   33.4130   76.7640   20.8230 O   0  0  0  0  0  0  0  0  0  0  0  0
   34.3552   72.6252   18.1568 H   0  0  0  0  0  0  0  0  0  0  0  0
   33.0031   72.0440   17.1269 H   0  0  0  0  0  0  0  0  0  0  0  0
   33.4483   73.7843   17.1269 H   0  0  0  0  0  0  0  0  0  0  0  0
   33.6243   74.8388   19.0601 H   0  0  0  0  0  0  0  0  0  0  0  0
   30.0298   76.1213   23.6012 H   0  0  0  0  0  0  0  0  0  0  0  0
   29.3717   73.9735   22.5124 H   0  0  0  0  0  0  0  0  0  0  0  0
   28.9114   72.2408   21.5650 H   0  0  0  0  0  0  0  0  0  0  0  0
   28.3953   70.1379   20.3774 H   0  0  0  0  0  0  0  0  0  0  0  0
   28.8306   68.5161   18.6491 H   0  0  0  0  0  0  0  0  0  0  0  0
   32.7152   71.2360   17.0353 H   0  0  0  0  0  0  0  0  0  0  0  0
   30.9041   67.7342   14.5325 H   0  0  0  0  0  0  0  0  0  0  0  0
   32.0027   66.8518   15.6924 H   0  0  0  0  0  0  0  0  0  0  0  0
   33.1094   78.7620   21.2822 H   0  0  0  0  0  0  0  0  0  0  0  0
   34.1881   77.8177   22.4102 H   0  0  0  0  0  0  0  0  0  0  0  0
  1  2  1  0
  2  3  2  0
  3  4  1  0
  4  5  2  0
  5  6  1  0
  6  7  2  0
  7  8  1  0
  8  9  2  0
  9 10  1  0
 10 11  2  0
 11 12  1  0
 12 13  2  0
 13 14  1  0
 14 15  2  0
 15 16  1  0
 16 17  2  0
 17 18  1  0
 18 19  2  0
 16 20  1  0
 20 21  1  0
 21 22  1  0
  6 23  1  0
 23 24  1  0
 24 25  1  0
 19  2  1  0
  9  4  1  0
 19 10  1  0
 25  5  1  0
 18 13  1  0
 22 15  1  0
  1 26  1  0
  1 27  1  0
  1 28  1  0
  3 29  1  0
  7 30  1  0
  8 31  1  0
 11 32  1  0
 12 33  1  0
 14 34  1  0
 17 35  1  0
 21 36  1  0
 21 37  1  0
 24 38  1  0
 24 39  1  0
M  CHG  1   2   1
M  END
>  <meeko>  (1) 
{"is_sidechain": [false], "free_energy": -9.036, "intermolecular_energy": -9.036, "internal_energy": 0.0}

$$$$
SANGUINARINE_5154_out
     RDKit          3D

 39 44  0  0  0  0  0  0  0  0999 V2000
   33.5540   73.7250   18.0860 C   0  0  0  0  0  0  0  0  0  0  0  0
   32.4640   72.8580   18.5330 N   0  0  0  0  0  0  0  0  0  0  0  0
   32.4220   71.7910   17.7330 C   0  0  0  0  0  0  0  0  0  0  0  0
   31.4740   70.7950   17.9200 C   0  0  0  0  0  0  0  0  0  0  0  0
   31.4150   69.6740   17.0920 C   0  0  0  0  0  0  0  0  0  0  0  0
   30.4780   68.6850   17.2710 C   0  0  0  0  0  0  0  0  0  0  0  0
   29.5500   68.7520   18.2810 C   0  0  0  0  0  0  0  0  0  0  0  0
   29.5880   69.8670   19.1260 C   0  0  0  0  0  0  0  0  0  0  0  0
   30.5440   70.9200   18.9760 C   0  0  0  0  0  0  0  0  0  0  0  0
   30.6220   72.0820   19.8170 C   0  0  0  0  0  0  0  0  0  0  0  0
   29.7520   72.3180   20.8980 C   0  0  0  0  0  0  0  0  0  0  0  0
   29.8520   73.4600   21.6960 C   0  0  0  0  0  0  0  0  0  0  0  0
   30.8310   74.4230   21.4540 C   0  0  0  0  0  0  0  0  0  0  0  0
   30.9000   75.5600   22.2800 C   0  0  0  0  0  0  0  0  0  0  0  0
   31.8720   76.5010   22.0280 C   0  0  0  0  0  0  0  0  0  0  0  0
   32.7600   76.3490   20.9980 C   0  0  0  0  0  0  0  0  0  0  0  0
   32.7230   75.2480   20.1650 C   0  0  0  0  0  0  0  0  0  0  0  0
   31.7430   74.2420   20.3730 C   0  0  0  0  0  0  0  0  0  0  0  0
   31.6210   73.0670   19.5680 C   0  0  0  0  0  0  0  0  0  0  0  0
   33.6400   77.3830   20.9160 O   0  0  0  0  0  0  0  0  0  0  0  0
   33.2020   78.2050   22.0160 C   0  0  0  0  0  0  0  0  0  0  0  0
   32.0780   77.6500   22.7280 O   0  0  0  0  0  0  0  0  0  0  0  0
   30.5920   67.6830   16.3590 O   0  0  0  0  0  0  0  0  0  0  0  0
   31.7090   68.1470   15.5780 C   0  0  0  0  0  0  0  0  0  0  0  0
   32.2360   69.4080   16.0350 O   0  0  0  0  0  0  0  0  0  0  0  0
   34.0753   74.1396   18.9614 H   0  0  0  0  0  0  0  0  0  0  0  0
   34.2623   73.1408   17.4802 H   0  0  0  0  0  0  0  0  0  0  0  0
   33.1441   74.5466   17.4802 H   0  0  0  0  0  0  0  0  0  0  0  0
   33.1496   71.6995   16.9131 H   0  0  0  0  0  0  0  0  0  0  0  0
   28.8028   67.9570   18.4210 H   0  0  0  0  0  0  0  0  0  0  0  0
   28.8514   69.9364   19.9400 H   0  0  0  0  0  0  0  0  0  0  0  0
   28.9682   71.5793   21.1215 H   0  0  0  0  0  0  0  0  0  0  0  0
   29.1473   73.6019   22.5286 H   0  0  0  0  0  0  0  0  0  0  0  0
   30.1912   75.6940   23.1105 H   0  0  0  0  0  0  0  0  0  0  0  0
   33.4492   75.1510   19.3445 H   0  0  0  0  0  0  0  0  0  0  0  0
   34.0389   78.3214   22.7203 H   0  0  0  0  0  0  0  0  0  0  0  0
   32.8787   79.1685   21.5952 H   0  0  0  0  0  0  0  0  0  0  0  0
   32.5092   67.3940   15.6304 H   0  0  0  0  0  0  0  0  0  0  0  0
   31.3492   68.2964   14.5493 H   0  0  0  0  0  0  0  0  0  0  0  0
  1  2  1  0
  2  3  2  0
  3  4  1  0
  4  5  2  0
  5  6  1  0
  6  7  2  0
  7  8  1  0
  8  9  2  0
  9 10  1  0
 10 11  2  0
 11 12  1  0
 12 13  2  0
 13 14  1  0
 14 15  2  0
 15 16  1  0
 16 17  2  0
 17 18  1  0
 18 19  2  0
 16 20  1  0
 20 21  1  0
 21 22  1  0
  6 23  1  0
 23 24  1  0
 24 25  1  0
 19  2  1  0
  9  4  1  0
 19 10  1  0
 25  5  1  0
 18 13  1  0
 22 15  1  0
  1 26  1  0
  1 27  1  0
  1 28  1  0
  3 29  1  0
  7 30  1  0
  8 31  1  0
 11 32  1  0
 12 33  1  0
 14 34  1  0
 17 35  1  0
 21 36  1  0
 21 37  1  0
 24 38  1  0
 24 39  1  0
M  CHG  1   2   1
M  END
>  <meeko>  (2) 
{"is_sidechain": [false], "free_energy": -8.789, "intermolecular_energy": -8.789, "internal_energy": 0.0}

$$$$
SANGUINARINE_5154_out
     RDKit          3D

 39 44  0  0  0  0  0  0  0  0999 V2000
   32.5710   73.7660   16.7020 C   0  0  0  0  0  0  0  0  0  0  0  0
   31.9690   73.6660   18.0310 N   0  0  0  0  0  0  0  0  0  0  0  0
   32.3770   74.7090   18.7560 C   0  0  0  0  0  0  0  0  0  0  0  0
   31.9650   74.8700   20.0710 C   0  0  0  0  0  0  0  0  0  0  0  0
   32.3820   75.9530   20.8440 C   0  0  0  0  0  0  0  0  0  0  0  0
   31.9780   76.1170   22.1460 C   0  0  0  0  0  0  0  0  0  0  0  0
   31.1380   75.2180   22.7540 C   0  0  0  0  0  0  0  0  0  0  0  0
   30.7040   74.1210   22.0010 C   0  0  0  0  0  0  0  0  0  0  0  0
   31.0990   73.9100   20.6420 C   0  0  0  0  0  0  0  0  0  0  0  0
   30.6810   72.8020   19.8300 C   0  0  0  0  0  0  0  0  0  0  0  0
   29.8230   71.7830   20.2870 C   0  0  0  0  0  0  0  0  0  0  0  0
   29.4370   70.7170   19.4730 C   0  0  0  0  0  0  0  0  0  0  0  0
   29.8880   70.6160   18.1570 C   0  0  0  0  0  0  0  0  0  0  0  0
   29.4760   69.5270   17.3680 C   0  0  0  0  0  0  0  0  0  0  0  0
   29.9290   69.4430   16.0710 C   0  0  0  0  0  0  0  0  0  0  0  0
   30.7660   70.3900   15.5460 C   0  0  0  0  0  0  0  0  0  0  0  0
   31.1920   71.4730   16.2910 C   0  0  0  0  0  0  0  0  0  0  0  0
   30.7590   71.6160   17.6340 C   0  0  0  0  0  0  0  0  0  0  0  0
   31.1440   72.6980   18.4860 C   0  0  0  0  0  0  0  0  0  0  0  0
   31.0980   70.1290   14.2530 O   0  0  0  0  0  0  0  0  0  0  0  0
   30.3740   68.9040   14.0250 C   0  0  0  0  0  0  0  0  0  0  0  0
   29.6280   68.4620   15.1780 O   0  0  0  0  0  0  0  0  0  0  0  0
   32.4980   77.2350   22.7200 O   0  0  0  0  0  0  0  0  0  0  0  0
   33.2790   77.7650   21.6330 C   0  0  0  0  0  0  0  0  0  0  0  0
   33.2120   76.9580   20.4410 O   0  0  0  0  0  0  0  0  0  0  0  0
   33.6517   73.9455   16.8016 H   0  0  0  0  0  0  0  0  0  0  0  0
   32.4042   72.8278   16.1524 H   0  0  0  0  0  0  0  0  0  0  0  0
   32.1099   74.5999   16.1524 H   0  0  0  0  0  0  0  0  0  0  0  0
   33.0502   75.4525   18.3044 H   0  0  0  0  0  0  0  0  0  0  0  0
   30.8169   75.3549   23.7971 H   0  0  0  0  0  0  0  0  0  0  0  0
   30.0311   73.3904   22.4737 H   0  0  0  0  0  0  0  0  0  0  0  0
   29.4448   71.8287   21.3189 H   0  0  0  0  0  0  0  0  0  0  0  0
   28.7662   69.9439   19.8759 H   0  0  0  0  0  0  0  0  0  0  0  0
   28.8054   68.7581   17.7791 H   0  0  0  0  0  0  0  0  0  0  0  0
   31.8639   72.2208   15.8445 H   0  0  0  0  0  0  0  0  0  0  0  0
   29.6713   69.0627   13.1937 H   0  0  0  0  0  0  0  0  0  0  0  0
   31.1151   68.1239   13.7963 H   0  0  0  0  0  0  0  0  0  0  0  0
   32.9080   78.7727   21.3945 H   0  0  0  0  0  0  0  0  0  0  0  0
   34.3290   77.7787   21.9605 H   0  0  0  0  0  0  0  0  0  0  0  0
  1  2  1  0
  2  3  2  0
  3  4  1  0
  4  5  2  0
  5  6  1  0
  6  7  2  0
  7  8  1  0
  8  9  2  0
  9 10  1  0
 10 11  2  0
 11 12  1  0
 12 13  2  0
 13 14  1  0
 14 15  2  0
 15 16  1  0
 16 17  2  0
 17 18  1  0
 18 19  2  0
 16 20  1  0
 20 21  1  0
 21 22  1  0
  6 23  1  0
 23 24  1  0
 24 25  1  0
 19  2  1  0
  9  4  1  0
 19 10  1  0
 25  5  1  0
 18 13  1  0
 22 15  1  0
  1 26  1  0
  1 27  1  0
  1 28  1  0
  3 29  1  0
  7 30  1  0
  8 31  1  0
 11 32  1  0
 12 33  1  0
 14 34  1  0
 17 35  1  0
 21 36  1  0
 21 37  1  0
 24 38  1  0
 24 39  1  0
M  CHG  1   2   1
M  END
>  <meeko>  (3) 
{"is_sidechain": [false], "free_energy": -8.763, "intermolecular_energy": -8.763, "internal_energy": 0.0}

$$$$
SANGUINARINE_5154_out
     RDKit          3D

 39 44  0  0  0  0  0  0  0  0999 V2000
   33.0740   73.7210   17.7240 C   0  0  0  0  0  0  0  0  0  0  0  0
   32.4390   74.2650   18.9240 N   0  0  0  0  0  0  0  0  0  0  0  0
   32.9590   75.4720   19.1620 C   0  0  0  0  0  0  0  0  0  0  0  0
   32.5450   76.2250   20.2510 C   0  0  0  0  0  0  0  0  0  0  0  0
   33.0760   77.4870   20.5150 C   0  0  0  0  0  0  0  0  0  0  0  0
   32.6720   78.2370   21.5920 C   0  0  0  0  0  0  0  0  0  0  0  0
   31.7170   77.7800   22.4660 C   0  0  0  0  0  0  0  0  0  0  0  0
   31.1660   76.5160   22.2230 C   0  0  0  0  0  0  0  0  0  0  0  0
   31.5580   75.7000   21.1160 C   0  0  0  0  0  0  0  0  0  0  0  0
   31.0230   74.3990   20.8260 C   0  0  0  0  0  0  0  0  0  0  0  0
   30.0380   73.7710   21.6130 C   0  0  0  0  0  0  0  0  0  0  0  0
   29.5390   72.5040   21.3060 C   0  0  0  0  0  0  0  0  0  0  0  0
   29.9990   71.8000   20.1940 C   0  0  0  0  0  0  0  0  0  0  0  0
   29.4710   70.5250   19.9180 C   0  0  0  0  0  0  0  0  0  0  0  0
   29.9350   69.8440   18.8150 C   0  0  0  0  0  0  0  0  0  0  0  0
   30.8900   70.3810   17.9960 C   0  0  0  0  0  0  0  0  0  0  0  0
   31.4320   71.6290   18.2350 C   0  0  0  0  0  0  0  0  0  0  0  0
   30.9950   72.3810   19.3560 C   0  0  0  0  0  0  0  0  0  0  0  0
   31.4940   73.6790   19.6900 C   0  0  0  0  0  0  0  0  0  0  0  0
   31.2120   69.5550   16.9640 O   0  0  0  0  0  0  0  0  0  0  0  0
   30.3480   68.4320   17.2300 C   0  0  0  0  0  0  0  0  0  0  0  0
   29.5320   68.6100   18.4060 O   0  0  0  0  0  0  0  0  0  0  0  0
   33.3140   79.4340   21.6690 O   0  0  0  0  0  0  0  0  0  0  0  0
   34.1740   79.3600   20.5170 C   0  0  0  0  0  0  0  0  0  0  0  0
   34.0310   78.1290   19.7810 O   0  0  0  0  0  0  0  0  0  0  0  0
   33.8794   73.0310   18.0161 H   0  0  0  0  0  0  0  0  0  0  0  0
   32.3258   73.1793   17.1267 H   0  0  0  0  0  0  0  0  0  0  0  0
   33.4944   74.5435   17.1267 H   0  0  0  0  0  0  0  0  0  0  0  0
   33.7266   75.8747   18.4848 H   0  0  0  0  0  0  0  0  0  0  0  0
   31.3961   78.3853   23.3266 H   0  0  0  0  0  0  0  0  0  0  0  0
   30.3990   76.1344   22.9130 H   0  0  0  0  0  0  0  0  0  0  0  0
   29.6494   74.2959   22.4981 H   0  0  0  0  0  0  0  0  0  0  0  0
   28.7706   72.0539   21.9517 H   0  0  0  0  0  0  0  0  0  0  0  0
   28.7037   70.0818   20.5698 H   0  0  0  0  0  0  0  0  0  0  0  0
   32.1983   72.0376   17.5598 H   0  0  0  0  0  0  0  0  0  0  0  0
   29.6860   68.2871   16.3636 H   0  0  0  0  0  0  0  0  0  0  0  0
   30.9922   67.5583   17.4079 H   0  0  0  0  0  0  0  0  0  0  0  0
   33.9336   80.1983   19.8466 H   0  0  0  0  0  0  0  0  0  0  0  0
   35.2115   79.4060   20.8796 H   0  0  0  0  0  0  0  0  0  0  0  0
  1  2  1  0
  2  3  2  0
  3  4  1  0
  4  5  2  0
  5  6  1  0
  6  7  2  0
  7  8  1  0
  8  9  2  0
  9 10  1  0
 10 11  2  0
 11 12  1  0
 12 13  2  0
 13 14  1  0
 14 15  2  0
 15 16  1  0
 16 17  2  0
 17 18  1  0
 18 19  2  0
 16 20  1  0
 20 21  1  0
 21 22  1  0
  6 23  1  0
 23 24  1  0
 24 25  1  0
 19  2  1  0
  9  4  1  0
 19 10  1  0
 25  5  1  0
 18 13  1  0
 22 15  1  0
  1 26  1  0
  1 27  1  0
  1 28  1  0
  3 29  1  0
  7 30  1  0
  8 31  1  0
 11 32  1  0
 12 33  1  0
 14 34  1  0
 17 35  1  0
 21 36  1  0
 21 37  1  0
 24 38  1  0
 24 39  1  0
M  CHG  1   2   1
M  END
>  <meeko>  (4) 
{"is_sidechain": [false], "free_energy": -8.502, "intermolecular_energy": -8.502, "internal_energy": 0.0}

$$$$
SANGUINARINE_5154_out
     RDKit          3D

 39 44  0  0  0  0  0  0  0  0999 V2000
   33.2830   74.9420   18.0120 C   0  0  0  0  0  0  0  0  0  0  0  0
   32.3070   74.3540   18.9280 N   0  0  0  0  0  0  0  0  0  0  0  0
   31.9680   73.1500   18.4640 C   0  0  0  0  0  0  0  0  0  0  0  0
   31.0440   72.3610   19.1340 C   0  0  0  0  0  0  0  0  0  0  0  0
   30.6770   71.1010   18.6630 C   0  0  0  0  0  0  0  0  0  0  0  0
   29.7630   70.3140   19.3200 C   0  0  0  0  0  0  0  0  0  0  0  0
   29.1640   70.7320   20.4830 C   0  0  0  0  0  0  0  0  0  0  0  0
   29.5150   71.9940   20.9780 C   0  0  0  0  0  0  0  0  0  0  0  0
   30.4600   72.8460   20.3250 C   0  0  0  0  0  0  0  0  0  0  0  0
   30.8510   74.1460   20.7940 C   0  0  0  0  0  0  0  0  0  0  0  0
   30.3390   74.7360   21.9660 C   0  0  0  0  0  0  0  0  0  0  0  0
   30.7390   76.0030   22.3940 C   0  0  0  0  0  0  0  0  0  0  0  0
   31.6740   76.7450   21.6730 C   0  0  0  0  0  0  0  0  0  0  0  0
   32.0510   78.0190   22.1370 C   0  0  0  0  0  0  0  0  0  0  0  0
   32.9750   78.7370   21.4140 C   0  0  0  0  0  0  0  0  0  0  0  0
   33.5240   78.2390   20.2640 C   0  0  0  0  0  0  0  0  0  0  0  0
   33.1780   76.9930   19.7770 C   0  0  0  0  0  0  0  0  0  0  0  0
   32.2300   76.2030   20.4770 C   0  0  0  0  0  0  0  0  0  0  0  0
   31.8050   74.9040   20.0560 C   0  0  0  0  0  0  0  0  0  0  0  0
   34.4150   79.0980   19.6990 O   0  0  0  0  0  0  0  0  0  0  0  0
   34.3620   80.1990   20.6280 C   0  0  0  0  0  0  0  0  0  0  0  0
   33.4480   79.9760   21.7210 O   0  0  0  0  0  0  0  0  0  0  0  0
   29.5460   69.1260   18.6950 O   0  0  0  0  0  0  0  0  0  0  0  0
   30.4270   69.2460   17.5630 C   0  0  0  0  0  0  0  0  0  0  0  0
   31.1460   70.4940   17.5340 O   0  0  0  0  0  0  0  0  0  0  0  0
   34.0844   75.4248   18.5906 H   0  0  0  0  0  0  0  0  0  0  0  0
   33.7130   74.1525   17.3781 H   0  0  0  0  0  0  0  0  0  0  0  0
   32.7860   75.6911   17.3781 H   0  0  0  0  0  0  0  0  0  0  0  0
   32.4277   72.7774   17.5367 H   0  0  0  0  0  0  0  0  0  0  0  0
   28.4341   70.0977   21.0073 H   0  0  0  0  0  0  0  0  0  0  0  0
   29.0441   72.3448   21.9082 H   0  0  0  0  0  0  0  0  0  0  0  0
   29.6005   74.1807   22.5629 H   0  0  0  0  0  0  0  0  0  0  0  0
   30.3095   76.4232   23.3154 H   0  0  0  0  0  0  0  0  0  0  0  0
   31.6157   78.4321   23.0589 H   0  0  0  0  0  0  0  0  0  0  0  0
   33.6356   76.6153   18.8507 H   0  0  0  0  0  0  0  0  0  0  0  0
   35.3692   80.3568   21.0411 H   0  0  0  0  0  0  0  0  0  0  0  0
   34.0007   81.0777   20.0736 H   0  0  0  0  0  0  0  0  0  0  0  0
   31.1561   68.4231   17.5985 H   0  0  0  0  0  0  0  0  0  0  0  0
   29.8036   69.2065   16.6576 H   0  0  0  0  0  0  0  0  0  0  0  0
  1  2  1  0
  2  3  2  0
  3  4  1  0
  4  5  2  0
  5  6  1  0
  6  7  2  0
  7  8  1  0
  8  9  2  0
  9 10  1  0
 10 11  2  0
 11 12  1  0
 12 13  2  0
 13 14  1  0
 14 15  2  0
 15 16  1  0
 16 17  2  0
 17 18  1  0
 18 19  2  0
 16 20  1  0
 20 21  1  0
 21 22  1  0
  6 23  1  0
 23 24  1  0
 24 25  1  0
 19  2  1  0
  9  4  1  0
 19 10  1  0
 25  5  1  0
 18 13  1  0
 22 15  1  0
  1 26  1  0
  1 27  1  0
  1 28  1  0
  3 29  1  0
  7 30  1  0
  8 31  1  0
 11 32  1  0
 12 33  1  0
 14 34  1  0
 17 35  1  0
 21 36  1  0
 21 37  1  0
 24 38  1  0
 24 39  1  0
M  CHG  1   2   1
M  END
>  <meeko>  (5) 
{"is_sidechain": [false], "free_energy": -8.282, "intermolecular_energy": -8.282, "internal_energy": 0.0}

$$$$
SANGUINARINE_5154_out
     RDKit          3D

 39 44  0  0  0  0  0  0  0  0999 V2000
   34.2780   74.6080   17.5440 C   0  0  0  0  0  0  0  0  0  0  0  0
   33.1890   74.1310   18.3950 N   0  0  0  0  0  0  0  0  0  0  0  0
   32.9580   75.0500   19.3350 C   0  0  0  0  0  0  0  0  0  0  0  0
   31.9730   74.8580   20.2940 C   0  0  0  0  0  0  0  0  0  0  0  0
   31.7180   75.8060   21.2840 C   0  0  0  0  0  0  0  0  0  0  0  0
   30.7460   75.6230   22.2370 C   0  0  0  0  0  0  0  0  0  0  0  0
   29.9710   74.4900   22.2590 C   0  0  0  0  0  0  0  0  0  0  0  0
   30.2060   73.5210   21.2760 C   0  0  0  0  0  0  0  0  0  0  0  0
   31.2080   73.6700   20.2660 C   0  0  0  0  0  0  0  0  0  0  0  0
   31.4860   72.7060   19.2390 C   0  0  0  0  0  0  0  0  0  0  0  0
   30.7920   71.4870   19.1090 C   0  0  0  0  0  0  0  0  0  0  0  0
   31.0880   70.5690   18.0990 C   0  0  0  0  0  0  0  0  0  0  0  0
   32.0910   70.8250   17.1650 C   0  0  0  0  0  0  0  0  0  0  0  0
   32.3590   69.8750   16.1630 C   0  0  0  0  0  0  0  0  0  0  0  0
   33.3520   70.1430   15.2480 C   0  0  0  0  0  0  0  0  0  0  0  0
   34.0740   71.3040   15.3000 C   0  0  0  0  0  0  0  0  0  0  0  0
   33.8400   72.2590   16.2700 C   0  0  0  0  0  0  0  0  0  0  0  0
   32.8300   72.0420   17.2420 C   0  0  0  0  0  0  0  0  0  0  0  0
   32.5120   72.9670   18.2850 C   0  0  0  0  0  0  0  0  0  0  0  0
   35.0050   71.3810   14.3110 O   0  0  0  0  0  0  0  0  0  0  0  0
   34.7850   70.1300   13.6300 C   0  0  0  0  0  0  0  0  0  0  0  0
   33.7350   69.3370   14.2200 O   0  0  0  0  0  0  0  0  0  0  0  0
   30.6610   76.6630   23.1080 O   0  0  0  0  0  0  0  0  0  0  0  0
   31.6910   77.5320   22.6000 C   0  0  0  0  0  0  0  0  0  0  0  0
   32.3670   76.9970   21.4460 O   0  0  0  0  0  0  0  0  0  0  0  0
   35.1040   74.9698   18.1739 H   0  0  0  0  0  0  0  0  0  0  0  0
   34.6350   73.7838   16.9089 H   0  0  0  0  0  0  0  0  0  0  0  0
   33.9143   75.4292   16.9089 H   0  0  0  0  0  0  0  0  0  0  0  0
   33.5567   75.9727   19.3499 H   0  0  0  0  0  0  0  0  0  0  0  0
   29.1921   74.3483   23.0227 H   0  0  0  0  0  0  0  0  0  0  0  0
   29.5944   72.6067   21.2806 H   0  0  0  0  0  0  0  0  0  0  0  0
   29.9916   71.2507   19.8257 H   0  0  0  0  0  0  0  0  0  0  0  0
   30.5205   69.6286   18.0394 H   0  0  0  0  0  0  0  0  0  0  0  0
   31.7868   68.9370   16.1116 H   0  0  0  0  0  0  0  0  0  0  0  0
   34.4346   73.1843   16.2887 H   0  0  0  0  0  0  0  0  0  0  0  0
   34.5160   70.3438   12.5850 H   0  0  0  0  0  0  0  0  0  0  0  0
   35.7155   69.5485   13.7075 H   0  0  0  0  0  0  0  0  0  0  0  0
   31.2324   78.4925   22.3224 H   0  0  0  0  0  0  0  0  0  0  0  0
   32.4427   77.6472   23.3948 H   0  0  0  0  0  0  0  0  0  0  0  0
  1  2  1  0
  2  3  2  0
  3  4  1  0
  4  5  2  0
  5  6  1  0
  6  7  2  0
  7  8  1  0
  8  9  2  0
  9 10  1  0
 10 11  2  0
 11 12  1  0
 12 13  2  0
 13 14  1  0
 14 15  2  0
 15 16  1  0
 16 17  2  0
 17 18  1  0
 18 19  2  0
 16 20  1  0
 20 21  1  0
 21 22  1  0
  6 23  1  0
 23 24  1  0
 24 25  1  0
 19  2  1  0
  9  4  1  0
 19 10  1  0
 25  5  1  0
 18 13  1  0
 22 15  1  0
  1 26  1  0
  1 27  1  0
  1 28  1  0
  3 29  1  0
  7 30  1  0
  8 31  1  0
 11 32  1  0
 12 33  1  0
 14 34  1  0
 17 35  1  0
 21 36  1  0
 21 37  1  0
 24 38  1  0
 24 39  1  0
M  CHG  1   2   1
M  END
>  <meeko>  (6) 
{"is_sidechain": [false], "free_energy": -8.211, "intermolecular_energy": -8.211, "internal_energy": 0.0}

$$$$
SANGUINARINE_5154_out
     RDKit          3D

 39 44  0  0  0  0  0  0  0  0999 V2000
   29.5900   71.4050   19.8330 C   0  0  0  0  0  0  0  0  0  0  0  0
   30.7340   71.3240   18.9260 N   0  0  0  0  0  0  0  0  0  0  0  0
   30.6080   70.2190   18.1890 C   0  0  0  0  0  0  0  0  0  0  0  0
   31.5620   69.8810   17.2400 C   0  0  0  0  0  0  0  0  0  0  0  0
   31.4470   68.7300   16.4610 C   0  0  0  0  0  0  0  0  0  0  0  0
   32.3870   68.3880   15.5210 C   0  0  0  0  0  0  0  0  0  0  0  0
   33.4940   69.1710   15.2980 C   0  0  0  0  0  0  0  0  0  0  0  0
   33.6330   70.3330   16.0660 C   0  0  0  0  0  0  0  0  0  0  0  0
   32.6790   70.7260   17.0570 C   0  0  0  0  0  0  0  0  0  0  0  0
   32.7800   71.9070   17.8680 C   0  0  0  0  0  0  0  0  0  0  0  0
   33.8450   72.8230   17.7780 C   0  0  0  0  0  0  0  0  0  0  0  0
   33.9140   73.9620   18.5830 C   0  0  0  0  0  0  0  0  0  0  0  0
   32.9190   74.2430   19.5190 C   0  0  0  0  0  0  0  0  0  0  0  0
   33.0250   75.4010   20.3110 C   0  0  0  0  0  0  0  0  0  0  0  0
   32.0340   75.6650   21.2290 C   0  0  0  0  0  0  0  0  0  0  0  0
   30.9630   74.8270   21.3810 C   0  0  0  0  0  0  0  0  0  0  0  0
   30.8250   73.6820   20.6220 C   0  0  0  0  0  0  0  0  0  0  0  0
   31.8140   73.3540   19.6580 C   0  0  0  0  0  0  0  0  0  0  0  0
   31.7630   72.1930   18.8250 C   0  0  0  0  0  0  0  0  0  0  0  0
   30.0960   75.2620   22.3350 O   0  0  0  0  0  0  0  0  0  0  0  0
   30.7480   76.4730   22.7680 C   0  0  0  0  0  0  0  0  0  0  0  0
   31.9820   76.7350   22.0690 O   0  0  0  0  0  0  0  0  0  0  0  0
   32.0880   67.2310   14.8740 O   0  0  0  0  0  0  0  0  0  0  0  0
   30.8470   66.8730   15.5100 C   0  0  0  0  0  0  0  0  0  0  0  0
   30.4340   67.8160   16.5180 O   0  0  0  0  0  0  0  0  0  0  0  0
   29.9448   71.3799   20.8739 H   0  0  0  0  0  0  0  0  0  0  0  0
   29.0457   72.3439   19.6537 H   0  0  0  0  0  0  0  0  0  0  0  0
   28.9188   70.5521   19.6537 H   0  0  0  0  0  0  0  0  0  0  0  0
   29.7348   69.5663   18.3359 H   0  0  0  0  0  0  0  0  0  0  0  0
   34.2444   68.8944   14.5427 H   0  0  0  0  0  0  0  0  0  0  0  0
   34.5134   70.9713   15.9005 H   0  0  0  0  0  0  0  0  0  0  0  0
   34.6485   72.6357   17.0504 H   0  0  0  0  0  0  0  0  0  0  0  0
   34.7669   74.6486   18.4772 H   0  0  0  0  0  0  0  0  0  0  0  0
   33.8821   76.0813   20.1989 H   0  0  0  0  0  0  0  0  0  0  0  0
   29.9527   73.0270   20.7636 H   0  0  0  0  0  0  0  0  0  0  0  0
   30.0642   77.3179   22.5989 H   0  0  0  0  0  0  0  0  0  0  0  0
   30.9954   76.3484   23.8325 H   0  0  0  0  0  0  0  0  0  0  0  0
   30.0629   66.8177   14.7405 H   0  0  0  0  0  0  0  0  0  0  0  0
   31.0029   65.9061   16.0107 H   0  0  0  0  0  0  0  0  0  0  0  0
  1  2  1  0
  2  3  2  0
  3  4  1  0
  4  5  2  0
  5  6  1  0
  6  7  2  0
  7  8  1  0
  8  9  2  0
  9 10  1  0
 10 11  2  0
 11 12  1  0
 12 13  2  0
 13 14  1  0
 14 15  2  0
 15 16  1  0
 16 17  2  0
 17 18  1  0
 18 19  2  0
 16 20  1  0
 20 21  1  0
 21 22  1  0
  6 23  1  0
 23 24  1  0
 24 25  1  0
 19  2  1  0
  9  4  1  0
 19 10  1  0
 25  5  1  0
 18 13  1  0
 22 15  1  0
  1 26  1  0
  1 27  1  0
  1 28  1  0
  3 29  1  0
  7 30  1  0
  8 31  1  0
 11 32  1  0
 12 33  1  0
 14 34  1  0
 17 35  1  0
 21 36  1  0
 21 37  1  0
 24 38  1  0
 24 39  1  0
M  CHG  1   2   1
M  END
>  <meeko>  (7) 
{"is_sidechain": [false], "free_energy": -8.001, "intermolecular_energy": -8.001, "internal_energy": 0.0}

$$$$
SANGUINARINE_5154_out
     RDKit          3D

 39 44  0  0  0  0  0  0  0  0999 V2000
   28.5330   73.1340   18.0320 C   0  0  0  0  0  0  0  0  0  0  0  0
   29.8360   73.4570   18.6120 N   0  0  0  0  0  0  0  0  0  0  0  0
   29.6620   74.4130   19.5280 C   0  0  0  0  0  0  0  0  0  0  0  0
   30.7380   74.9240   20.2390 C   0  0  0  0  0  0  0  0  0  0  0  0
   30.5750   75.9230   21.1990 C   0  0  0  0  0  0  0  0  0  0  0  0
   31.6360   76.4340   21.9070 C   0  0  0  0  0  0  0  0  0  0  0  0
   32.9160   75.9820   21.7040 C   0  0  0  0  0  0  0  0  0  0  0  0
   33.1080   74.9790   20.7460 C   0  0  0  0  0  0  0  0  0  0  0  0
   32.0330   74.4190   19.9860 C   0  0  0  0  0  0  0  0  0  0  0  0
   32.1800   73.3900   18.9940 C   0  0  0  0  0  0  0  0  0  0  0  0
   33.4170   72.8100   18.6530 C   0  0  0  0  0  0  0  0  0  0  0  0
   33.5270   71.8130   17.6820 C   0  0  0  0  0  0  0  0  0  0  0  0
   32.4030   71.3430   17.0030 C   0  0  0  0  0  0  0  0  0  0  0  0
   32.5550   70.3370   16.0320 C   0  0  0  0  0  0  0  0  0  0  0  0
   31.4360   69.8830   15.3720 C   0  0  0  0  0  0  0  0  0  0  0  0
   30.1940   70.3910   15.6420 C   0  0  0  0  0  0  0  0  0  0  0  0
   30.0060   71.3800   16.5880 C   0  0  0  0  0  0  0  0  0  0  0  0
   31.1210   71.8900   17.3030 C   0  0  0  0  0  0  0  0  0  0  0  0
   31.0320   72.9120   18.2990 C   0  0  0  0  0  0  0  0  0  0  0  0
   29.2210   69.8130   14.8870 O   0  0  0  0  0  0  0  0  0  0  0  0
   29.9960   68.8810   14.1070 C   0  0  0  0  0  0  0  0  0  0  0  0
   31.4060   68.9200   14.4110 O   0  0  0  0  0  0  0  0  0  0  0  0
   31.2620   77.3980   22.7900 O   0  0  0  0  0  0  0  0  0  0  0  0
   29.8410   77.4420   22.5640 C   0  0  0  0  0  0  0  0  0  0  0  0
   29.3970   76.5120   21.5570 O   0  0  0  0  0  0  0  0  0  0  0  0
   27.8071   72.9540   18.8386 H   0  0  0  0  0  0  0  0  0  0  0  0
   28.1898   73.9743   17.4106 H   0  0  0  0  0  0  0  0  0  0  0  0
   28.6220   72.2307   17.4106 H   0  0  0  0  0  0  0  0  0  0  0  0
   28.6510   74.8008   19.7215 H   0  0  0  0  0  0  0  0  0  0  0  0
   33.7618   76.3935   22.2743 H   0  0  0  0  0  0  0  0  0  0  0  0
   34.1279   74.6061   20.5704 H   0  0  0  0  0  0  0  0  0  0  0  0
   34.3260   73.1536   19.1684 H   0  0  0  0  0  0  0  0  0  0  0  0
   34.5159   71.3914   17.4487 H   0  0  0  0  0  0  0  0  0  0  0  0
   33.5479   69.9216   15.8048 H   0  0  0  0  0  0  0  0  0  0  0  0
   28.9969   71.7704   16.7862 H   0  0  0  0  0  0  0  0  0  0  0  0
   29.6237   67.8650   14.3049 H   0  0  0  0  0  0  0  0  0  0  0  0
   29.8814   69.1645   13.0503 H   0  0  0  0  0  0  0  0  0  0  0  0
   29.3294   77.2051   23.5085 H   0  0  0  0  0  0  0  0  0  0  0  0
   29.5985   78.4530   22.2047 H   0  0  0  0  0  0  0  0  0  0  0  0
  1  2  1  0
  2  3  2  0
  3  4  1  0
  4  5  2  0
  5  6  1  0
  6  7  2  0
  7  8  1  0
  8  9  2  0
  9 10  1  0
 10 11  2  0
 11 12  1  0
 12 13  2  0
 13 14  1  0
 14 15  2  0
 15 16  1  0
 16 17  2  0
 17 18  1  0
 18 19  2  0
 16 20  1  0
 20 21  1  0
 21 22  1  0
  6 23  1  0
 23 24  1  0
 24 25  1  0
 19  2  1  0
  9  4  1  0
 19 10  1  0
 25  5  1  0
 18 13  1  0
 22 15  1  0
  1 26  1  0
  1 27  1  0
  1 28  1  0
  3 29  1  0
  7 30  1  0
  8 31  1  0
 11 32  1  0
 12 33  1  0
 14 34  1  0
 17 35  1  0
 21 36  1  0
 21 37  1  0
 24 38  1  0
 24 39  1  0
M  CHG  1   2   1
M  END
>  <meeko>  (8) 
{"is_sidechain": [false], "free_energy": -7.815, "intermolecular_energy": -7.815, "internal_energy": 0.0}

$$$$
SANGUINARINE_5154_out
     RDKit          3D

 39 44  0  0  0  0  0  0  0  0999 V2000
   33.9250   74.7180   17.4680 C   0  0  0  0  0  0  0  0  0  0  0  0
   33.1740   75.1550   18.6440 N   0  0  0  0  0  0  0  0  0  0  0  0
   33.5640   76.3930   18.9540 C   0  0  0  0  0  0  0  0  0  0  0  0
   33.0180   77.0620   20.0400 C   0  0  0  0  0  0  0  0  0  0  0  0
   33.4140   78.3560   20.3790 C   0  0  0  0  0  0  0  0  0  0  0  0
   32.8800   79.0240   21.4540 C   0  0  0  0  0  0  0  0  0  0  0  0
   31.9220   78.4470   22.2510 C   0  0  0  0  0  0  0  0  0  0  0  0
   31.5070   77.1480   21.9330 C   0  0  0  0  0  0  0  0  0  0  0  0
   32.0370   76.4160   20.8250 C   0  0  0  0  0  0  0  0  0  0  0  0
   31.6430   75.0840   20.4600 C   0  0  0  0  0  0  0  0  0  0  0  0
   30.6780   74.3380   21.1630 C   0  0  0  0  0  0  0  0  0  0  0  0
   30.3190   73.0440   20.7830 C   0  0  0  0  0  0  0  0  0  0  0  0
   30.9060   72.4290   19.6780 C   0  0  0  0  0  0  0  0  0  0  0  0
   30.5170   71.1230   19.3280 C   0  0  0  0  0  0  0  0  0  0  0  0
   31.1050   70.5300   18.2340 C   0  0  0  0  0  0  0  0  0  0  0  0
   32.0520   71.1840   17.4930 C   0  0  0  0  0  0  0  0  0  0  0  0
   32.4600   72.4660   17.8070 C   0  0  0  0  0  0  0  0  0  0  0  0
   31.8900   73.1310   18.9240 C   0  0  0  0  0  0  0  0  0  0  0  0
   32.2450   74.4550   19.3310 C   0  0  0  0  0  0  0  0  0  0  0  0
   32.5090   70.4320   16.4550 O   0  0  0  0  0  0  0  0  0  0  0  0
   31.7390   69.2260   16.6310 C   0  0  0  0  0  0  0  0  0  0  0  0
   30.8440   69.2820   17.7600 O   0  0  0  0  0  0  0  0  0  0  0  0
   33.4010   80.2700   21.6100 O   0  0  0  0  0  0  0  0  0  0  0  0
   34.3290   80.3200   20.5110 C   0  0  0  0  0  0  0  0  0  0  0  0
   34.3450   79.1110   19.7270 O   0  0  0  0  0  0  0  0  0  0  0  0
   34.8343   74.1889   17.7894 H   0  0  0  0  0  0  0  0  0  0  0  0
   33.3011   74.0419   16.8650 H   0  0  0  0  0  0  0  0  0  0  0  0
   34.2046   75.5945   16.8650 H   0  0  0  0  0  0  0  0  0  0  0  0
   34.3292   76.8902   18.3398 H   0  0  0  0  0  0  0  0  0  0  0  0
   31.4954   78.9866   23.1094 H   0  0  0  0  0  0  0  0  0  0  0  0
   30.7411   76.6707   22.5620 H   0  0  0  0  0  0  0  0  0  0  0  0
   30.1913   74.7896   22.0400 H   0  0  0  0  0  0  0  0  0  0  0  0
   29.5603   72.5003   21.3650 H   0  0  0  0  0  0  0  0  0  0  0  0
   29.7583   70.5867   19.9168 H   0  0  0  0  0  0  0  0  0  0  0  0
   33.2228   72.9689   17.1944 H   0  0  0  0  0  0  0  0  0  0  0  0
   31.1441   69.0555   15.7216 H   0  0  0  0  0  0  0  0  0  0  0  0
   32.4509   68.4088   16.8190 H   0  0  0  0  0  0  0  0  0  0  0  0
   34.0501   81.1582   19.8556 H   0  0  0  0  0  0  0  0  0  0  0  0
   35.3349   80.4467   20.9377 H   0  0  0  0  0  0  0  0  0  0  0  0
  1  2  1  0
  2  3  2  0
  3  4  1  0
  4  5  2  0
  5  6  1  0
  6  7  2  0
  7  8  1  0
  8  9  2  0
  9 10  1  0
 10 11  2  0
 11 12  1  0
 12 13  2  0
 13 14  1  0
 14 15  2  0
 15 16  1  0
 16 17  2  0
 17 18  1  0
 18 19  2  0
 16 20  1  0
 20 21  1  0
 21 22  1  0
  6 23  1  0
 23 24  1  0
 24 25  1  0
 19  2  1  0
  9  4  1  0
 19 10  1  0
 25  5  1  0
 18 13  1  0
 22 15  1  0
  1 26  1  0
  1 27  1  0
  1 28  1  0
  3 29  1  0
  7 30  1  0
  8 31  1  0
 11 32  1  0
 12 33  1  0
 14 34  1  0
 17 35  1  0
 21 36  1  0
 21 37  1  0
 24 38  1  0
 24 39  1  0
M  CHG  1   2   1
M  END
>  <meeko>  (9) 
{"is_sidechain": [false], "free_energy": -7.601, "intermolecular_energy": -7.601, "internal_energy": 0.0}

$$$$
