10048142
  -OEChem-09272610523D

 52 53  0     0  0  0  0  0  0999 V2000
    5.1214    0.8716   -2.5544 Cl  0  0  0  0  0  0  0  0  0  0  0  0
    3.0405    1.5263    3.0071 Cl  0  0  0  0  0  0  0  0  0  0  0  0
   -3.1856   -0.9166    0.4448 O   0  0  0  0  0  0  0  0  0  0  0  0
   -3.4566   -2.8115   -0.8418 O   0  0  0  0  0  0  0  0  0  0  0  0
   -3.2399    2.9236   -1.9672 O   0  0  0  0  0  0  0  0  0  0  0  0
   -2.1934    1.3555    2.2328 O   0  0  0  0  0  0  0  0  0  0  0  0
    3.5375    0.5913    0.0945 N   0  0  0  0  0  0  0  0  0  0  0  0
   -3.1106    1.9093    0.1441 N   0  0  0  0  0  0  0  0  0  0  0  0
   -0.2948   -3.5296   -0.8549 C   0  0  0  0  0  0  0  0  0  0  0  0
   -1.1059   -3.9455    0.3809 C   0  0  0  0  0  0  0  0  0  0  0  0
    0.7171   -2.4415   -0.6041 C   0  0  0  0  0  0  0  0  0  0  0  0
    2.5904   -0.4271   -0.1399 C   0  0  0  0  0  0  0  0  0  0  0  0
   -1.9000   -2.8021    1.0161 C   0  0  0  0  0  0  0  0  0  0  0  0
    3.4557    1.8487   -0.6217 C   0  0  0  0  0  0  0  0  0  0  0  0
    4.5968    0.3992    1.0650 C   0  0  0  0  0  0  0  0  0  0  0  0
    2.0174   -2.7726   -0.2229 C   0  0  0  0  0  0  0  0  0  0  0  0
    0.3535   -1.1030   -0.7531 C   0  0  0  0  0  0  0  0  0  0  0  0
    2.9541   -1.7654    0.0091 C   0  0  0  0  0  0  0  0  0  0  0  0
    1.2900   -0.0958   -0.5210 C   0  0  0  0  0  0  0  0  0  0  0  0
   -2.9274   -2.2061    0.0811 C   0  0  0  0  0  0  0  0  0  0  0  0
   -4.3467    1.1750    0.1766 C   0  0  0  0  0  0  0  0  0  0  0  0
    3.5686    1.6301   -2.1223 C   0  0  0  0  0  0  0  0  0  0  0  0
    4.0268    0.1505    2.4526 C   0  0  0  0  0  0  0  0  0  0  0  0
   -4.1689   -0.2395   -0.3444 C   0  0  0  0  0  0  0  0  0  0  0  0
   -2.6902    2.6959   -0.9030 C   0  0  0  0  0  0  0  0  0  0  0  0
   -2.1792    1.9261    1.1554 C   0  0  0  0  0  0  0  0  0  0  0  0
   -1.3861    3.2541   -0.5131 C   0  0  0  0  0  0  0  0  0  0  0  0
   -1.0842    2.7990    0.7035 C   0  0  0  0  0  0  0  0  0  0  0  0
   -0.9642   -3.2193   -1.6667 H   0  0  0  0  0  0  0  0  0  0  0  0
    0.2250   -4.4150   -1.2443 H   0  0  0  0  0  0  0  0  0  0  0  0
   -1.7899   -4.7534    0.0933 H   0  0  0  0  0  0  0  0  0  0  0  0
   -0.4282   -4.3595    1.1378 H   0  0  0  0  0  0  0  0  0  0  0  0
   -2.4426   -3.1827    1.8893 H   0  0  0  0  0  0  0  0  0  0  0  0
   -1.2244   -2.0184    1.3733 H   0  0  0  0  0  0  0  0  0  0  0  0
    4.2569    2.5299   -0.3076 H   0  0  0  0  0  0  0  0  0  0  0  0
    2.5281    2.3805   -0.3806 H   0  0  0  0  0  0  0  0  0  0  0  0
    5.2510    1.2794    1.1088 H   0  0  0  0  0  0  0  0  0  0  0  0
    5.2575   -0.4239    0.7697 H   0  0  0  0  0  0  0  0  0  0  0  0
    2.3128   -3.8118   -0.1054 H   0  0  0  0  0  0  0  0  0  0  0  0
   -0.6512   -0.8273   -1.0597 H   0  0  0  0  0  0  0  0  0  0  0  0
    3.9589   -2.0681    0.2859 H   0  0  0  0  0  0  0  0  0  0  0  0
    0.9629    0.9314   -0.6388 H   0  0  0  0  0  0  0  0  0  0  0  0
   -5.0946    1.7009   -0.4261 H   0  0  0  0  0  0  0  0  0  0  0  0
   -4.6890    1.1393    1.2170 H   0  0  0  0  0  0  0  0  0  0  0  0
    3.5277    2.5933   -2.6404 H   0  0  0  0  0  0  0  0  0  0  0  0
    2.7730    1.0039   -2.5327 H   0  0  0  0  0  0  0  0  0  0  0  0
    4.8429    0.0309    3.1721 H   0  0  0  0  0  0  0  0  0  0  0  0
    3.4032   -0.7447    2.5128 H   0  0  0  0  0  0  0  0  0  0  0  0
   -5.1214   -0.7777   -0.2813 H   0  0  0  0  0  0  0  0  0  0  0  0
   -3.8351   -0.2178   -1.3888 H   0  0  0  0  0  0  0  0  0  0  0  0
   -0.7957    3.9131   -1.1270 H   0  0  0  0  0  0  0  0  0  0  0  0
   -0.1983    3.0130    1.2774 H   0  0  0  0  0  0  0  0  0  0  0  0
  1 22  1  0  0  0  0
  2 23  1  0  0  0  0
  3 20  1  0  0  0  0
  3 24  1  0  0  0  0
  4 20  2  0  0  0  0
  5 25  2  0  0  0  0
  6 26  2  0  0  0  0
  7 12  1  0  0  0  0
  7 14  1  0  0  0  0
  7 15  1  0  0  0  0
  8 21  1  0  0  0  0
  8 25  1  0  0  0  0
  8 26  1  0  0  0  0
  9 10  1  0  0  0  0
  9 11  1  0  0  0  0
  9 29  1  0  0  0  0
  9 30  1  0  0  0  0
 10 13  1  0  0  0  0
 10 31  1  0  0  0  0
 10 32  1  0  0  0  0
 11 16  2  0  0  0  0
 11 17  1  0  0  0  0
 12 18  2  0  0  0  0
 12 19  1  0  0  0  0
 13 20  1  0  0  0  0
 13 33  1  0  0  0  0
 13 34  1  0  0  0  0
 14 22  1  0  0  0  0
 14 35  1  0  0  0  0
 14 36  1  0  0  0  0
 15 23  1  0  0  0  0
 15 37  1  0  0  0  0
 15 38  1  0  0  0  0
 16 18  1  0  0  0  0
 16 39  1  0  0  0  0
 17 19  2  0  0  0  0
 17 40  1  0  0  0  0
 18 41  1  0  0  0  0
 19 42  1  0  0  0  0
 21 24  1  0  0  0  0
 21 43  1  0  0  0  0
 21 44  1  0  0  0  0
 22 45  1  0  0  0  0
 22 46  1  0  0  0  0
 23 47  1  0  0  0  0
 23 48  1  0  0  0  0
 24 49  1  0  0  0  0
 24 50  1  0  0  0  0
 25 27  1  0  0  0  0
 26 28  1  0  0  0  0
 27 28  2  0  0  0  0
 27 51  1  0  0  0  0
 28 52  1  0  0  0  0
M  END
> <PUBCHEM_COMPOUND_CID>
10048142

> <PUBCHEM_CONFORMER_RMSD>
1.2

> <PUBCHEM_CONFORMER_DIVERSEORDER>
1
13
99
131
34
58
96
38
44
109
78
48
54
39
61
50
133
85
42
16
52
134
55
57
126
51
115
77
40
83
70
98
89
92
32
22
118
120
110
21
128
104
12
20
140
71
102
73
91
107
59
28
103
60
35
97
74
81
93
79
15
23
117
6
10
121
19
94
80
114
2
65
105
62
9
88
26
33
108
17
84
63
106
113
47
25
7
139
8
30
127
31
27
68
82
135
122
64
112
43
72
67
49
101
14
136
86
69
132
37
123
90
111
46
119
24
95
125
53
5
11
18
75
66
100
29
76
116
137
138
124
41
56
45
130
36
129
87
4
3

> <PUBCHEM_MMFF94_PARTIAL_CHARGES>
33
1 -0.29
11 -0.14
12 0.1
13 0.06
14 0.37
15 0.37
16 -0.15
17 -0.15
18 -0.15
19 -0.15
2 -0.29
20 0.66
21 0.3
22 0.29
23 0.29
24 0.28
25 0.62
26 0.62
27 -0.14
28 -0.14
3 -0.43
39 0.15
4 -0.57
40 0.15
41 0.15
42 0.15
5 -0.57
51 0.15
52 0.15
6 -0.57
7 -0.84
8 -0.42
9 0.14

> <PUBCHEM_EFFECTIVE_ROTOR_COUNT>
13.2

> <PUBCHEM_PHARMACOPHORE_FEATURES>
6
1 4 acceptor
1 5 acceptor
1 6 acceptor
1 7 cation
5 8 25 26 27 28 rings
6 11 12 16 17 18 19 rings

> <PUBCHEM_HEAVY_ATOM_COUNT>
28

> <PUBCHEM_ATOM_DEF_STEREO_COUNT>
0

> <PUBCHEM_ATOM_UDEF_STEREO_COUNT>
0

> <PUBCHEM_BOND_DEF_STEREO_COUNT>
0

> <PUBCHEM_BOND_UDEF_STEREO_COUNT>
0

> <PUBCHEM_ISOTOPIC_ATOM_COUNT>
0

> <PUBCHEM_COMPONENT_COUNT>
1

> <PUBCHEM_CACTVS_TAUTO_COUNT>
1

> <PUBCHEM_CONFORMER_ID>
0099528E00000001

> <PUBCHEM_MMFF94_ENERGY>
54.8459

> <PUBCHEM_FEATURE_SELFOVERLAP>
30.447

> <PUBCHEM_SHAPE_FINGERPRINT>
10439779 11 17255947984355962115
10670039 82 18337966696014863974
11370993 70 18192986028783628875
12553582 1 18194409011678900483
12596602 18 16877948286154816603
12788726 201 18115871969748412722
13122387 1 17474673845385978803
13402501 40 18129931390498940129
13617811 41 18337380566556384533
14081887 123 18271517675987254083
14117953 113 18263079920750768165
14279260 333 16626906533656070702
14466204 15 17905324031462002506
14840074 17 18043558155315840293
15001296 14 18116441538299490268
15297060 5 18199211583889996932
15629462 23 16628022542279584178
161222 619 17056656412259540992
17818456 19 18335973247105966466
19930381 70 17904766579419582509
20715895 44 17970615304425870589
20764821 26 18339077060581956193
22749437 52 18195804076932696481
23559900 14 18049718520959728653
238 59 17688860948492198269
3052486 1 18339642356035939960
3117164 225 18192689182610350154
469060 322 18192172570900426915
5252454 2 18199208212060926081

> <PUBCHEM_SHAPE_MULTIPOLES>
546.53
9.27
4.97
2.19
3.32
2.28
-0.8
-3.75
1.01
-4.34
0.75
3.06
-1.55
0.17

> <PUBCHEM_SHAPE_SELFOVERLAP>
1110.32

> <PUBCHEM_SHAPE_VOLUME>
317.9

> <PUBCHEM_COORDINATE_TYPE>
2
5
10

$$$$
