10054794
  -OEChem-09272610523D

 75 79  0     1  0  0  0  0  0999 V2000
    5.1923   -2.0585   -0.9352 Cl  0  0  0  0  0  0  0  0  0  0  0  0
    3.9395    2.1745    3.5045 Cl  0  0  0  0  0  0  0  0  0  0  0  0
   -2.7451    2.0335    0.0827 O   0  0  0  0  0  0  0  0  0  0  0  0
   -1.2483    0.3746    1.2783 O   0  0  0  0  0  0  0  0  0  0  0  0
   -2.4647   -3.1863   -2.7587 O   0  0  0  0  0  0  0  0  0  0  0  0
    0.7669   -1.1057    1.8663 O   0  0  0  0  0  0  0  0  0  0  0  0
   -0.4001   -4.5618   -2.0383 O   0  0  0  0  0  0  0  0  0  0  0  0
   -2.3878    2.5811   -2.1292 O   0  0  0  0  0  0  0  0  0  0  0  0
    4.5606    1.6550    0.5213 N   0  0  0  0  0  0  0  0  0  0  0  0
   -3.4905    0.8739   -0.3294 C   0  0  1  0  0  0  0  0  0  0  0  0
   -2.6132   -0.3194   -0.5245 C   0  0  0  0  0  0  0  0  0  0  0  0
   -0.6955   -1.6610    0.0933 C   0  0  0  0  0  0  0  0  0  0  0  0
   -1.0000   -2.5645   -0.9270 C   0  0  0  0  0  0  0  0  0  0  0  0
   -1.5044   -0.5361    0.2941 C   0  0  0  0  0  0  0  0  0  0  0  0
   -0.7810    4.8021   -1.4249 C   0  0  0  0  0  0  0  0  0  0  0  0
   -2.9172   -1.2213   -1.5424 C   0  0  0  0  0  0  0  0  0  0  0  0
    0.2022    4.0175   -2.3057 C   0  0  0  0  0  0  0  0  0  0  0  0
   -2.1136   -2.3434   -1.7462 C   0  0  0  0  0  0  0  0  0  0  0  0
   -4.6372    0.6388    0.6457 C   0  0  0  0  0  0  0  0  0  0  0  0
    0.4761   -1.8823    0.9653 C   0  0  0  0  0  0  0  0  0  0  0  0
    1.3214   -3.0730    0.7420 C   0  0  0  0  0  0  0  0  0  0  0  0
    1.0171   -3.9763   -0.2786 C   0  0  0  0  0  0  0  0  0  0  0  0
   -0.1544   -3.7550   -1.1505 C   0  0  0  0  0  0  0  0  0  0  0  0
   -1.4694    3.9529   -0.3543 C   0  0  0  0  0  0  0  0  0  0  0  0
    1.3530    3.3937   -1.5591 C   0  0  0  0  0  0  0  0  0  0  0  0
    3.4835    2.2388   -0.1771 C   0  0  0  0  0  0  0  0  0  0  0  0
   -2.2522    2.7958   -0.9317 C   0  0  0  0  0  0  0  0  0  0  0  0
    2.5375    4.1084   -1.3798 C   0  0  0  0  0  0  0  0  0  0  0  0
    1.2339    2.1016   -1.0472 C   0  0  0  0  0  0  0  0  0  0  0  0
    2.4350   -3.2941    1.5612 C   0  0  0  0  0  0  0  0  0  0  0  0
    3.6026    3.5311   -0.6888 C   0  0  0  0  0  0  0  0  0  0  0  0
    2.2991    1.5242   -0.3563 C   0  0  0  0  0  0  0  0  0  0  0  0
    1.8265   -5.1009   -0.4799 C   0  0  0  0  0  0  0  0  0  0  0  0
    4.7505    0.2181    0.5093 C   0  0  0  0  0  0  0  0  0  0  0  0
    5.4838    2.4828    1.2719 C   0  0  0  0  0  0  0  0  0  0  0  0
   -5.8190    0.0449    0.2026 C   0  0  0  0  0  0  0  0  0  0  0  0
   -4.5055    1.0179    1.9816 C   0  0  0  0  0  0  0  0  0  0  0  0
    3.2390   -4.4159    1.3570 C   0  0  0  0  0  0  0  0  0  0  0  0
    2.9353   -5.3174    0.3387 C   0  0  0  0  0  0  0  0  0  0  0  0
   -6.8692   -0.1699    1.0952 C   0  0  0  0  0  0  0  0  0  0  0  0
   -5.5556    0.8031    2.8743 C   0  0  0  0  0  0  0  0  0  0  0  0
    4.9474   -0.2943   -0.9088 C   0  0  0  0  0  0  0  0  0  0  0  0
    4.7583    3.2633    2.3568 C   0  0  0  0  0  0  0  0  0  0  0  0
   -6.7374    0.2092    2.4311 C   0  0  0  0  0  0  0  0  0  0  0  0
   -3.9769    1.1174   -1.2852 H   0  0  0  0  0  0  0  0  0  0  0  0
   -1.5417    5.2533   -2.0741 H   0  0  0  0  0  0  0  0  0  0  0  0
   -0.2545    5.6282   -0.9313 H   0  0  0  0  0  0  0  0  0  0  0  0
   -3.7789   -1.0578   -2.1854 H   0  0  0  0  0  0  0  0  0  0  0  0
   -0.2956    3.2515   -2.9079 H   0  0  0  0  0  0  0  0  0  0  0  0
    0.6119    4.7134   -3.0510 H   0  0  0  0  0  0  0  0  0  0  0  0
   -2.1752    4.5877    0.1939 H   0  0  0  0  0  0  0  0  0  0  0  0
   -0.7375    3.5680    0.3627 H   0  0  0  0  0  0  0  0  0  0  0  0
    2.6429    5.1152   -1.7753 H   0  0  0  0  0  0  0  0  0  0  0  0
    0.3233    1.5280   -1.1892 H   0  0  0  0  0  0  0  0  0  0  0  0
    2.6957   -2.6062    2.3610 H   0  0  0  0  0  0  0  0  0  0  0  0
    4.5117    4.1156   -0.5886 H   0  0  0  0  0  0  0  0  0  0  0  0
    2.1603    0.5225    0.0350 H   0  0  0  0  0  0  0  0  0  0  0  0
    1.6129   -5.8193   -1.2667 H   0  0  0  0  0  0  0  0  0  0  0  0
    3.9126   -0.2889    1.0025 H   0  0  0  0  0  0  0  0  0  0  0  0
    5.6329   -0.0571    1.1011 H   0  0  0  0  0  0  0  0  0  0  0  0
    6.0297    3.1640    0.6093 H   0  0  0  0  0  0  0  0  0  0  0  0
    6.2621    1.8704    1.7450 H   0  0  0  0  0  0  0  0  0  0  0  0
   -5.9376   -0.2538   -0.8353 H   0  0  0  0  0  0  0  0  0  0  0  0
   -3.5953    1.4770    2.3562 H   0  0  0  0  0  0  0  0  0  0  0  0
   -0.4105    0.1786    1.7228 H   0  0  0  0  0  0  0  0  0  0  0  0
    4.1037   -4.5859    1.9920 H   0  0  0  0  0  0  0  0  0  0  0  0
    3.5635   -6.1895    0.1815 H   0  0  0  0  0  0  0  0  0  0  0  0
   -7.7895   -0.6318    0.7502 H   0  0  0  0  0  0  0  0  0  0  0  0
   -5.4528    1.0968    3.9149 H   0  0  0  0  0  0  0  0  0  0  0  0
   -1.8471   -3.9304   -2.8163 H   0  0  0  0  0  0  0  0  0  0  0  0
    5.8296    0.1648   -1.3672 H   0  0  0  0  0  0  0  0  0  0  0  0
    4.0943   -0.0937   -1.5608 H   0  0  0  0  0  0  0  0  0  0  0  0
    4.0063    3.9541    1.9685 H   0  0  0  0  0  0  0  0  0  0  0  0
    5.4783    3.8533    2.9325 H   0  0  0  0  0  0  0  0  0  0  0  0
   -7.5548    0.0417    3.1262 H   0  0  0  0  0  0  0  0  0  0  0  0
  1 42  1  0  0  0  0
  2 43  1  0  0  0  0
  3 10  1  0  0  0  0
  3 27  1  0  0  0  0
  4 14  1  0  0  0  0
  4 65  1  0  0  0  0
  5 18  1  0  0  0  0
  5 70  1  0  0  0  0
  6 20  2  0  0  0  0
  7 23  2  0  0  0  0
  8 27  2  0  0  0  0
  9 26  1  0  0  0  0
  9 34  1  0  0  0  0
  9 35  1  0  0  0  0
 10 11  1  0  0  0  0
 10 19  1  0  0  0  0
 10 45  1  0  0  0  0
 11 14  1  0  0  0  0
 11 16  2  0  0  0  0
 12 13  1  0  0  0  0
 12 14  2  0  0  0  0
 12 20  1  0  0  0  0
 13 18  2  0  0  0  0
 13 23  1  0  0  0  0
 15 17  1  0  0  0  0
 15 24  1  0  0  0  0
 15 46  1  0  0  0  0
 15 47  1  0  0  0  0
 16 18  1  0  0  0  0
 16 48  1  0  0  0  0
 17 25  1  0  0  0  0
 17 49  1  0  0  0  0
 17 50  1  0  0  0  0
 19 36  2  0  0  0  0
 19 37  1  0  0  0  0
 20 21  1  0  0  0  0
 21 22  1  0  0  0  0
 21 30  2  0  0  0  0
 22 23  1  0  0  0  0
 22 33  2  0  0  0  0
 24 27  1  0  0  0  0
 24 51  1  0  0  0  0
 24 52  1  0  0  0  0
 25 28  2  0  0  0  0
 25 29  1  0  0  0  0
 26 31  2  0  0  0  0
 26 32  1  0  0  0  0
 28 31  1  0  0  0  0
 28 53  1  0  0  0  0
 29 32  2  0  0  0  0
 29 54  1  0  0  0  0
 30 38  1  0  0  0  0
 30 55  1  0  0  0  0
 31 56  1  0  0  0  0
 32 57  1  0  0  0  0
 33 39  1  0  0  0  0
 33 58  1  0  0  0  0
 34 42  1  0  0  0  0
 34 59  1  0  0  0  0
 34 60  1  0  0  0  0
 35 43  1  0  0  0  0
 35 61  1  0  0  0  0
 35 62  1  0  0  0  0
 36 40  1  0  0  0  0
 36 63  1  0  0  0  0
 37 41  2  0  0  0  0
 37 64  1  0  0  0  0
 38 39  2  0  0  0  0
 38 66  1  0  0  0  0
 39 67  1  0  0  0  0
 40 44  2  0  0  0  0
 40 68  1  0  0  0  0
 41 44  1  0  0  0  0
 41 69  1  0  0  0  0
 42 71  1  0  0  0  0
 42 72  1  0  0  0  0
 43 73  1  0  0  0  0
 43 74  1  0  0  0  0
 44 75  1  0  0  0  0
M  END
> <PUBCHEM_COMPOUND_CID>
10054794

> <PUBCHEM_CONFORMER_RMSD>
1.2

> <PUBCHEM_CONFORMER_DIVERSEORDER>
1
87
48
153
117
154
136
98
39
56
81
88
132
25
19
62
27
122
65
92
172
174
32
7
127
173
77
11
38
9
182
82
54
70
133
150
99
23
26
46
6
49
3
145
33
108
149
144
58
47
114
179
111
21
189
20
164
42
8
128
123
183
166
89
35
31
2
148
28
40
86
135
63
158
60
17
37
95
10
16
192
41
168
126
29
187
53
34
119
159
71
36
43
69
110
22
104
191
167
96
147
177
184
165
14
106
186
162
180
134
116
138
68
67
156
73
55
101
103
161
155
102
176
90
45
66
169
113
160
30
131
141
129
105
84
94
120
124
109
163
97
51
130
170
107
64
171
76
118
93
152
4
181
178
61
175
44
24
151
112
75
5
190
57
79
157
140
50
146
15
125
185
52
12
137
59
91
80
78
18
115
72
100
121
83
188
85
74
139
142
13
143

> <PUBCHEM_MMFF94_PARTIAL_CHARGES>
59
1 -0.29
10 0.57
11 -0.14
12 0.09
13 0.09
14 0.08
16 -0.15
17 0.14
18 0.08
19 -0.14
2 -0.29
20 0.4
21 0.09
22 0.09
23 0.4
24 0.06
25 -0.14
26 0.1
27 0.66
28 -0.15
29 -0.15
3 -0.43
30 -0.15
31 -0.15
32 -0.15
33 -0.15
34 0.37
35 0.37
36 -0.15
37 -0.15
38 -0.15
39 -0.15
4 -0.53
40 -0.15
41 -0.15
42 0.29
43 0.29
44 -0.15
48 0.15
5 -0.53
53 0.15
54 0.15
55 0.15
56 0.15
57 0.15
58 0.15
6 -0.57
63 0.15
64 0.15
65 0.45
66 0.15
67 0.15
68 0.15
69 0.15
7 -0.57
70 0.45
75 0.15
8 -0.57
9 -0.84

> <PUBCHEM_EFFECTIVE_ROTOR_COUNT>
13

> <PUBCHEM_PHARMACOPHORE_FEATURES>
11
1 4 donor
1 5 donor
1 6 acceptor
1 7 acceptor
1 8 acceptor
1 9 cation
6 11 12 13 14 16 18 rings
6 12 13 20 21 22 23 rings
6 19 36 37 40 41 44 rings
6 21 22 30 33 38 39 rings
6 25 26 28 29 31 32 rings

> <PUBCHEM_HEAVY_ATOM_COUNT>
44

> <PUBCHEM_ATOM_DEF_STEREO_COUNT>
0

> <PUBCHEM_ATOM_UDEF_STEREO_COUNT>
1

> <PUBCHEM_BOND_DEF_STEREO_COUNT>
0

> <PUBCHEM_BOND_UDEF_STEREO_COUNT>
0

> <PUBCHEM_ISOTOPIC_ATOM_COUNT>
0

> <PUBCHEM_COMPONENT_COUNT>
1

> <PUBCHEM_CACTVS_TAUTO_COUNT>
12

> <PUBCHEM_CONFORMER_ID>
00996C8A00000001

> <PUBCHEM_MMFF94_ENERGY>
133.1921

> <PUBCHEM_FEATURE_SELFOVERLAP>
55.865

> <PUBCHEM_SHAPE_FINGERPRINT>
10581848 127 17762076718594427418
11445158 3 17843958140026277523
12422481 6 18335431175004589961
12788726 201 17547292666979833054
13383668 90 11676807358686068064
14363568 33 18195812873226425550
16114785 44 17547874296188565355
17852330 53 17691178951528287395
19319366 153 18341620364389974881
19611394 137 17757838827330086115
20764821 26 16099673579027660532
20775438 99 15964239022590033718
21133410 38 18271521017339967567
4394409 98 17614517800165818470
5265222 85 18334870428743841132

> <PUBCHEM_SHAPE_MULTIPOLES>
869.04
12.24
8.23
2.65
10.14
4.19
1.26
-4.4
8.65
-8.8
-3.35
0.65
-1.11
-0.03

> <PUBCHEM_SHAPE_SELFOVERLAP>
1881.865

> <PUBCHEM_SHAPE_VOLUME>
475.2

> <PUBCHEM_COORDINATE_TYPE>
2
5
10

$$$$
