Nepetin_5317284_out
     RDKit          3D

 35 37  0  0  0  0  0  0  0  0999 V2000
   31.0170  -31.9380  -22.1530 C   0  0  0  0  0  0  0  0  0  0  0  0
   31.8980  -31.3550  -21.1960 O   0  0  0  0  0  0  0  0  0  0  0  0
   31.4020  -31.1520  -19.9420 C   0  0  0  0  0  0  0  0  0  0  0  0
   31.4670  -32.1770  -18.9970 C   0  0  0  0  0  0  0  0  0  0  0  0
   32.0230  -33.3800  -19.3170 O   0  0  0  0  0  0  0  0  0  0  0  0
   30.9620  -31.9780  -17.7120 C   0  0  0  0  0  0  0  0  0  0  0  0
   30.3910  -30.7510  -17.3730 C   0  0  0  0  0  0  0  0  0  0  0  0
   29.9110  -30.6150  -16.0950 O   0  0  0  0  0  0  0  0  0  0  0  0
   29.3450  -29.4040  -15.7280 C   0  0  0  0  0  0  0  0  0  0  0  0
   28.8560  -29.3680  -14.3350 C   0  0  0  0  0  0  0  0  0  0  0  0
   29.7280  -29.6340  -13.2770 C   0  0  0  0  0  0  0  0  0  0  0  0
   29.2660  -29.5990  -11.9620 C   0  0  0  0  0  0  0  0  0  0  0  0
   27.9300  -29.2990  -11.7000 C   0  0  0  0  0  0  0  0  0  0  0  0
   27.4890  -29.2690  -10.4110 O   0  0  0  0  0  0  0  0  0  0  0  0
   27.0550  -29.0320  -12.7540 C   0  0  0  0  0  0  0  0  0  0  0  0
   25.7470  -28.7380  -12.5110 O   0  0  0  0  0  0  0  0  0  0  0  0
   27.5180  -29.0670  -14.0700 C   0  0  0  0  0  0  0  0  0  0  0  0
   29.2200  -28.3480  -16.5480 C   0  0  0  0  0  0  0  0  0  0  0  0
   29.7190  -28.4450  -17.9350 C   0  0  0  0  0  0  0  0  0  0  0  0
   29.6260  -27.5060  -18.7140 O   0  0  0  0  0  0  0  0  0  0  0  0
   30.3270  -29.7290  -18.3180 C   0  0  0  0  0  0  0  0  0  0  0  0
   30.8320  -29.9230  -19.6060 C   0  0  0  0  0  0  0  0  0  0  0  0
   30.7870  -28.9460  -20.5550 O   0  0  0  0  0  0  0  0  0  0  0  0
   30.2097  -32.4722  -21.6306 H   0  0  0  0  0  0  0  0  0  0  0  0
   30.5851  -31.1468  -22.7835 H   0  0  0  0  0  0  0  0  0  0  0  0
   31.5764  -32.6448  -22.7835 H   0  0  0  0  0  0  0  0  0  0  0  0
   33.0080  -33.4820  -19.3310 H   0  0  0  0  0  0  0  0  0  0  0  0
   31.0138  -32.7864  -16.9679 H   0  0  0  0  0  0  0  0  0  0  0  0
   30.7823  -29.8718  -13.4818 H   0  0  0  0  0  0  0  0  0  0  0  0
   29.9558  -29.8081  -11.1311 H   0  0  0  0  0  0  0  0  0  0  0  0
   26.5350  -29.0900  -10.2180 H   0  0  0  0  0  0  0  0  0  0  0  0
   25.1320  -29.4450  -12.1910 H   0  0  0  0  0  0  0  0  0  0  0  0
   26.8278  -28.8571  -14.9004 H   0  0  0  0  0  0  0  0  0  0  0  0
   28.7506  -27.4197  -16.1904 H   0  0  0  0  0  0  0  0  0  0  0  0
   29.9250  -28.7080  -20.9790 H   0  0  0  0  0  0  0  0  0  0  0  0
  1  2  1  0
  2  3  1  0
  3  4  2  0
  4  5  1  0
  4  6  1  0
  6  7  2  0
  7  8  1  0
  8  9  1  0
  9 10  1  0
 10 11  1  0
 11 12  2  0
 12 13  1  0
 13 14  1  0
 13 15  2  0
 15 16  1  0
 15 17  1  0
  9 18  2  0
 18 19  1  0
 19 20  2  0
 19 21  1  0
 21 22  2  0
 22 23  1  0
 22  3  1  0
 21  7  1  0
 17 10  2  0
  1 24  1  0
  1 25  1  0
  1 26  1  0
  5 27  1  0
  6 28  1  0
 11 29  1  0
 12 30  1  0
 14 31  1  0
 16 32  1  0
 17 33  1  0
 18 34  1  0
 23 35  1  0
M  END
>  <meeko>  (1) 
{"is_sidechain": [false], "free_energy": -8.802, "intermolecular_energy": -10.86, "internal_energy": -0.286}

$$$$
Nepetin_5317284_out
     RDKit          3D

 35 37  0  0  0  0  0  0  0  0999 V2000
   17.2140  -25.5030   -9.2330 C   0  0  0  0  0  0  0  0  0  0  0  0
   17.6130  -25.3750  -10.5950 O   0  0  0  0  0  0  0  0  0  0  0  0
   18.7930  -25.9610  -10.9510 C   0  0  0  0  0  0  0  0  0  0  0  0
   18.8150  -27.3070  -11.3190 C   0  0  0  0  0  0  0  0  0  0  0  0
   17.6660  -28.0420  -11.3250 O   0  0  0  0  0  0  0  0  0  0  0  0
   20.0160  -27.9130  -11.6840 C   0  0  0  0  0  0  0  0  0  0  0  0
   21.1970  -27.1720  -11.6810 C   0  0  0  0  0  0  0  0  0  0  0  0
   22.3470  -27.8230  -12.0500 O   0  0  0  0  0  0  0  0  0  0  0  0
   23.5350  -27.1080  -12.0640 C   0  0  0  0  0  0  0  0  0  0  0  0
   24.7100  -27.9050  -12.4680 C   0  0  0  0  0  0  0  0  0  0  0  0
   24.8050  -28.4060  -13.7680 C   0  0  0  0  0  0  0  0  0  0  0  0
   25.9160  -29.1590  -14.1490 C   0  0  0  0  0  0  0  0  0  0  0  0
   26.9350  -29.4120  -13.2320 C   0  0  0  0  0  0  0  0  0  0  0  0
   28.0150  -30.1500  -13.6160 O   0  0  0  0  0  0  0  0  0  0  0  0
   26.8450  -28.9130  -11.9320 C   0  0  0  0  0  0  0  0  0  0  0  0
   27.8340  -29.1540  -11.0270 O   0  0  0  0  0  0  0  0  0  0  0  0
   25.7330  -28.1600  -11.5510 C   0  0  0  0  0  0  0  0  0  0  0  0
   23.6420  -25.8120  -11.7250 C   0  0  0  0  0  0  0  0  0  0  0  0
   22.4330  -25.0680  -11.3190 C   0  0  0  0  0  0  0  0  0  0  0  0
   22.4870  -23.8870  -11.0050 O   0  0  0  0  0  0  0  0  0  0  0  0
   21.1730  -25.8270  -11.3140 C   0  0  0  0  0  0  0  0  0  0  0  0
   19.9720  -25.2150  -10.9480 C   0  0  0  0  0  0  0  0  0  0  0  0
   19.9110  -23.9030  -10.5840 O   0  0  0  0  0  0  0  0  0  0  0  0
   18.0552  -25.2331   -8.5776 H   0  0  0  0  0  0  0  0  0  0  0  0
   16.3650  -24.8321   -9.0350 H   0  0  0  0  0  0  0  0  0  0  0  0
   16.9138  -26.5425   -9.0350 H   0  0  0  0  0  0  0  0  0  0  0  0
   16.9440  -27.8360  -10.6800 H   0  0  0  0  0  0  0  0  0  0  0  0
   20.0320  -28.9740  -11.9739 H   0  0  0  0  0  0  0  0  0  0  0  0
   24.0022  -28.2065  -14.4931 H   0  0  0  0  0  0  0  0  0  0  0  0
   25.9879  -29.5532  -15.1734 H   0  0  0  0  0  0  0  0  0  0  0  0
   27.8900  -30.9490  -14.1870 H   0  0  0  0  0  0  0  0  0  0  0  0
   27.6930  -28.9380  -10.0720 H   0  0  0  0  0  0  0  0  0  0  0  0
   25.6619  -27.7664  -10.5263 H   0  0  0  0  0  0  0  0  0  0  0  0
   24.6207  -25.3104  -11.7497 H   0  0  0  0  0  0  0  0  0  0  0  0
   19.6740  -23.2140  -11.2540 H   0  0  0  0  0  0  0  0  0  0  0  0
  1  2  1  0
  2  3  1  0
  3  4  2  0
  4  5  1  0
  4  6  1  0
  6  7  2  0
  7  8  1  0
  8  9  1  0
  9 10  1  0
 10 11  1  0
 11 12  2  0
 12 13  1  0
 13 14  1  0
 13 15  2  0
 15 16  1  0
 15 17  1  0
  9 18  2  0
 18 19  1  0
 19 20  2  0
 19 21  1  0
 21 22  2  0
 22 23  1  0
 22  3  1  0
 21  7  1  0
 17 10  2  0
  1 24  1  0
  1 25  1  0
  1 26  1  0
  5 27  1  0
  6 28  1  0
 11 29  1  0
 12 30  1  0
 14 31  1  0
 16 32  1  0
 17 33  1  0
 18 34  1  0
 23 35  1  0
M  END
>  <meeko>  (2) 
{"is_sidechain": [false], "free_energy": -8.308, "intermolecular_energy": -10.257, "internal_energy": -0.28}

$$$$
Nepetin_5317284_out
     RDKit          3D

 35 37  0  0  0  0  0  0  0  0999 V2000
   15.5140  -32.8550  -13.7140 C   0  0  0  0  0  0  0  0  0  0  0  0
   15.5730  -31.6010  -14.3900 O   0  0  0  0  0  0  0  0  0  0  0  0
   16.6140  -30.7770  -14.0740 C   0  0  0  0  0  0  0  0  0  0  0  0
   17.8190  -30.8870  -14.7690 C   0  0  0  0  0  0  0  0  0  0  0  0
   17.9650  -31.8100  -15.7620 O   0  0  0  0  0  0  0  0  0  0  0  0
   18.8880  -30.0490  -14.4530 C   0  0  0  0  0  0  0  0  0  0  0  0
   18.7500  -29.1010  -13.4390 C   0  0  0  0  0  0  0  0  0  0  0  0
   19.8360  -28.3050  -13.1730 O   0  0  0  0  0  0  0  0  0  0  0  0
   19.7260  -27.3480  -12.1760 C   0  0  0  0  0  0  0  0  0  0  0  0
   20.9520  -26.5540  -11.9680 C   0  0  0  0  0  0  0  0  0  0  0  0
   20.8660  -25.1860  -11.6980 C   0  0  0  0  0  0  0  0  0  0  0  0
   22.0240  -24.4360  -11.5010 C   0  0  0  0  0  0  0  0  0  0  0  0
   23.2740  -25.0510  -11.5730 C   0  0  0  0  0  0  0  0  0  0  0  0
   24.4000  -24.3070  -11.3800 O   0  0  0  0  0  0  0  0  0  0  0  0
   23.3650  -26.4170  -11.8410 C   0  0  0  0  0  0  0  0  0  0  0  0
   24.5800  -27.0290  -11.9140 O   0  0  0  0  0  0  0  0  0  0  0  0
   22.2050  -27.1670  -12.0390 C   0  0  0  0  0  0  0  0  0  0  0  0
   18.6220  -27.1530  -11.4350 C   0  0  0  0  0  0  0  0  0  0  0  0
   17.4270  -27.9850  -11.6810 C   0  0  0  0  0  0  0  0  0  0  0  0
   16.4020  -27.8370  -11.0310 O   0  0  0  0  0  0  0  0  0  0  0  0
   17.5460  -28.9930  -12.7470 C   0  0  0  0  0  0  0  0  0  0  0  0
   16.4720  -29.8300  -13.0600 C   0  0  0  0  0  0  0  0  0  0  0  0
   15.2800  -29.7520  -12.4040 O   0  0  0  0  0  0  0  0  0  0  0  0
   15.5219  -32.6863  -12.6270 H   0  0  0  0  0  0  0  0  0  0  0  0
   14.5901  -33.3808  -13.9967 H   0  0  0  0  0  0  0  0  0  0  0  0
   16.3844  -33.4653  -13.9967 H   0  0  0  0  0  0  0  0  0  0  0  0
   17.3610  -32.5940  -15.8010 H   0  0  0  0  0  0  0  0  0  0  0  0
   19.8374  -30.1353  -15.0018 H   0  0  0  0  0  0  0  0  0  0  0  0
   19.8812  -24.6993  -11.6407 H   0  0  0  0  0  0  0  0  0  0  0  0
   21.9523  -23.3591  -11.2887 H   0  0  0  0  0  0  0  0  0  0  0  0
   24.4510  -23.3860  -11.7390 H   0  0  0  0  0  0  0  0  0  0  0  0
   24.6940  -27.9470  -11.5610 H   0  0  0  0  0  0  0  0  0  0  0  0
   22.2776  -28.2438  -12.2516 H   0  0  0  0  0  0  0  0  0  0  0  0
   18.6086  -26.3804  -10.6521 H   0  0  0  0  0  0  0  0  0  0  0  0
   14.8960  -28.8680  -12.1790 H   0  0  0  0  0  0  0  0  0  0  0  0
  1  2  1  0
  2  3  1  0
  3  4  2  0
  4  5  1  0
  4  6  1  0
  6  7  2  0
  7  8  1  0
  8  9  1  0
  9 10  1  0
 10 11  1  0
 11 12  2  0
 12 13  1  0
 13 14  1  0
 13 15  2  0
 15 16  1  0
 15 17  1  0
  9 18  2  0
 18 19  1  0
 19 20  2  0
 19 21  1  0
 21 22  2  0
 22 23  1  0
 22  3  1  0
 21  7  1  0
 17 10  2  0
  1 24  1  0
  1 25  1  0
  1 26  1  0
  5 27  1  0
  6 28  1  0
 11 29  1  0
 12 30  1  0
 14 31  1  0
 16 32  1  0
 17 33  1  0
 18 34  1  0
 23 35  1  0
M  END
>  <meeko>  (3) 
{"is_sidechain": [false], "free_energy": -8.037, "intermolecular_energy": -9.883, "internal_energy": -0.32}

$$$$
Nepetin_5317284_out
     RDKit          3D

 35 37  0  0  0  0  0  0  0  0999 V2000
   14.0540  -29.6720  -10.9410 C   0  0  0  0  0  0  0  0  0  0  0  0
   14.4510  -28.6480  -11.8490 O   0  0  0  0  0  0  0  0  0  0  0  0
   15.7870  -28.3920  -11.9470 C   0  0  0  0  0  0  0  0  0  0  0  0
   16.5680  -29.1160  -12.8490 C   0  0  0  0  0  0  0  0  0  0  0  0
   16.0050  -30.0780  -13.6340 O   0  0  0  0  0  0  0  0  0  0  0  0
   17.9350  -28.8600  -12.9550 C   0  0  0  0  0  0  0  0  0  0  0  0
   18.5210  -27.8790  -12.1570 C   0  0  0  0  0  0  0  0  0  0  0  0
   19.8690  -27.6720  -12.3050 O   0  0  0  0  0  0  0  0  0  0  0  0
   20.4780  -26.6970  -11.5300 C   0  0  0  0  0  0  0  0  0  0  0  0
   21.9290  -26.5630  -11.7650 C   0  0  0  0  0  0  0  0  0  0  0  0
   22.7100  -27.6970  -12.0030 C   0  0  0  0  0  0  0  0  0  0  0  0
   24.0800  -27.5700  -12.2250 C   0  0  0  0  0  0  0  0  0  0  0  0
   24.6760  -26.3090  -12.2090 C   0  0  0  0  0  0  0  0  0  0  0  0
   26.0170  -26.1980  -12.4260 O   0  0  0  0  0  0  0  0  0  0  0  0
   23.9000  -25.1740  -11.9720 C   0  0  0  0  0  0  0  0  0  0  0  0
   24.4700  -23.9370  -11.9530 O   0  0  0  0  0  0  0  0  0  0  0  0
   22.5280  -25.3010  -11.7500 C   0  0  0  0  0  0  0  0  0  0  0  0
   19.8360  -25.9420  -10.6240 C   0  0  0  0  0  0  0  0  0  0  0  0
   18.3840  -26.1270  -10.4250 C   0  0  0  0  0  0  0  0  0  0  0  0
   17.7610  -25.4580   -9.6120 O   0  0  0  0  0  0  0  0  0  0  0  0
   17.7400  -27.1560  -11.2560 C   0  0  0  0  0  0  0  0  0  0  0  0
   16.3700  -27.4080  -11.1460 C   0  0  0  0  0  0  0  0  0  0  0  0
   15.5770  -26.7210  -10.2780 O   0  0  0  0  0  0  0  0  0  0  0  0
   14.1907  -29.3193   -9.9081 H   0  0  0  0  0  0  0  0  0  0  0  0
   12.9950  -29.9189  -11.1070 H   0  0  0  0  0  0  0  0  0  0  0  0
   14.6698  -30.5682  -11.1070 H   0  0  0  0  0  0  0  0  0  0  0  0
   15.0810  -29.9630  -13.9720 H   0  0  0  0  0  0  0  0  0  0  0  0
   18.5492  -29.4311  -13.6668 H   0  0  0  0  0  0  0  0  0  0  0  0
   22.2423  -28.6925  -12.0152 H   0  0  0  0  0  0  0  0  0  0  0  0
   24.6917  -28.4647  -12.4130 H   0  0  0  0  0  0  0  0  0  0  0  0
   26.5870  -25.7300  -11.7660 H   0  0  0  0  0  0  0  0  0  0  0  0
   24.7790  -23.5470  -11.0970 H   0  0  0  0  0  0  0  0  0  0  0  0
   21.9170  -24.4056  -11.5628 H   0  0  0  0  0  0  0  0  0  0  0  0
   20.3861  -25.1929  -10.0356 H   0  0  0  0  0  0  0  0  0  0  0  0
   14.7600  -27.1460   -9.9120 H   0  0  0  0  0  0  0  0  0  0  0  0
  1  2  1  0
  2  3  1  0
  3  4  2  0
  4  5  1  0
  4  6  1  0
  6  7  2  0
  7  8  1  0
  8  9  1  0
  9 10  1  0
 10 11  1  0
 11 12  2  0
 12 13  1  0
 13 14  1  0
 13 15  2  0
 15 16  1  0
 15 17  1  0
  9 18  2  0
 18 19  1  0
 19 20  2  0
 19 21  1  0
 21 22  2  0
 22 23  1  0
 22  3  1  0
 21  7  1  0
 17 10  2  0
  1 24  1  0
  1 25  1  0
  1 26  1  0
  5 27  1  0
  6 28  1  0
 11 29  1  0
 12 30  1  0
 14 31  1  0
 16 32  1  0
 17 33  1  0
 18 34  1  0
 23 35  1  0
M  END
>  <meeko>  (4) 
{"is_sidechain": [false], "free_energy": -6.692, "intermolecular_energy": -8.24, "internal_energy": -0.303}

$$$$
