Nepitrin_120742_out
     RDKit          3D

 56 59  0  0  0  0  0  0  0  0999 V2000
   17.3520  -25.4030   -9.9630 C   0  0  0  0  0  0  0  0  0  0  0  0
   17.9240  -25.0850  -11.2300 O   0  0  0  0  0  0  0  0  0  0  0  0
   19.0790  -25.7290  -11.5660 C   0  0  0  0  0  0  0  0  0  0  0  0
   19.0230  -26.9150  -12.3000 C   0  0  0  0  0  0  0  0  0  0  0  0
   17.8220  -27.4360  -12.6840 O   0  0  0  0  0  0  0  0  0  0  0  0
   17.6590  -28.8460  -12.5310 C   0  0  2  0  0  0  0  0  0  0  0  0
   17.7500  -29.4810  -13.8040 O   0  0  0  0  0  0  0  0  0  0  0  0
   17.6190  -30.9020  -13.7170 C   0  0  2  0  0  0  0  0  0  0  0  0
   17.8580  -31.4720  -15.1130 C   0  0  0  0  0  0  0  0  0  0  0  0
   18.0400  -32.8720  -15.0020 O   0  0  0  0  0  0  0  0  0  0  0  0
   16.2310  -31.2680  -13.1880 C   0  0  1  0  0  0  0  0  0  0  0  0
   16.1450  -32.6810  -13.0270 O   0  0  0  0  0  0  0  0  0  0  0  0
   15.9680  -30.5890  -11.8420 C   0  0  2  0  0  0  0  0  0  0  0  0
   14.5870  -30.7680  -11.5200 O   0  0  0  0  0  0  0  0  0  0  0  0
   16.2870  -29.0960  -11.9040 C   0  0  1  0  0  0  0  0  0  0  0  0
   16.2970  -28.5580  -10.5810 O   0  0  0  0  0  0  0  0  0  0  0  0
   20.2000  -27.5810  -12.6480 C   0  0  0  0  0  0  0  0  0  0  0  0
   21.4330  -27.0560  -12.2610 C   0  0  0  0  0  0  0  0  0  0  0  0
   22.5540  -27.7540  -12.6310 O   0  0  0  0  0  0  0  0  0  0  0  0
   23.7950  -27.2520  -12.2670 C   0  0  0  0  0  0  0  0  0  0  0  0
   24.9310  -28.0840  -12.7110 C   0  0  0  0  0  0  0  0  0  0  0  0
   24.9210  -28.6640  -13.9820 C   0  0  0  0  0  0  0  0  0  0  0  0
   25.9940  -29.4510  -14.4020 C   0  0  0  0  0  0  0  0  0  0  0  0
   27.0810  -29.6590  -13.5520 C   0  0  0  0  0  0  0  0  0  0  0  0
   28.1220  -30.4290  -13.9730 O   0  0  0  0  0  0  0  0  0  0  0  0
   27.0940  -29.0820  -12.2820 C   0  0  0  0  0  0  0  0  0  0  0  0
   28.1490  -29.2780  -11.4430 O   0  0  0  0  0  0  0  0  0  0  0  0
   26.0210  -28.2950  -11.8630 C   0  0  0  0  0  0  0  0  0  0  0  0
   23.9760  -26.1280  -11.5570 C   0  0  0  0  0  0  0  0  0  0  0  0
   22.8010  -25.3420  -11.1310 C   0  0  0  0  0  0  0  0  0  0  0  0
   22.9230  -24.3110  -10.4860 O   0  0  0  0  0  0  0  0  0  0  0  0
   21.4870  -25.8720  -11.5270 C   0  0  0  0  0  0  0  0  0  0  0  0
   20.3110  -25.2030  -11.1770 C   0  0  0  0  0  0  0  0  0  0  0  0
   20.3260  -24.0420  -10.4630 O   0  0  0  0  0  0  0  0  0  0  0  0
   18.0103  -25.0370   -9.1613 H   0  0  0  0  0  0  0  0  0  0  0  0
   16.3658  -24.9236   -9.8752 H   0  0  0  0  0  0  0  0  0  0  0  0
   17.2387  -26.4936   -9.8752 H   0  0  0  0  0  0  0  0  0  0  0  0
   18.4467  -29.2607  -11.8848 H   0  0  0  0  0  0  0  0  0  0  0  0
   18.3529  -31.3266  -13.0162 H   0  0  0  0  0  0  0  0  0  0  0  0
   16.9893  -31.2605  -15.7538 H   0  0  0  0  0  0  0  0  0  0  0  0
   18.7505  -31.0104  -15.5607 H   0  0  0  0  0  0  0  0  0  0  0  0
   18.4290  -33.2210  -15.8420 H   0  0  0  0  0  0  0  0  0  0  0  0
   15.4768  -30.9230  -13.9106 H   0  0  0  0  0  0  0  0  0  0  0  0
   15.3930  -32.8990  -12.4210 H   0  0  0  0  0  0  0  0  0  0  0  0
   16.6146  -31.0397  -11.0747 H   0  0  0  0  0  0  0  0  0  0  0  0
   14.0760  -30.9470  -12.3480 H   0  0  0  0  0  0  0  0  0  0  0  0
   15.5160  -28.6117  -12.5213 H   0  0  0  0  0  0  0  0  0  0  0  0
   15.3650  -28.4500  -10.2630 H   0  0  0  0  0  0  0  0  0  0  0  0
   20.1550  -28.5163  -13.2252 H   0  0  0  0  0  0  0  0  0  0  0  0
   24.0652  -28.4998  -14.6533 H   0  0  0  0  0  0  0  0  0  0  0  0
   25.9830  -29.9073  -15.4028 H   0  0  0  0  0  0  0  0  0  0  0  0
   28.4510  -30.3510  -14.9040 H   0  0  0  0  0  0  0  0  0  0  0  0
   28.1190  -30.0050  -10.7720 H   0  0  0  0  0  0  0  0  0  0  0  0
   26.0332  -27.8392  -10.8619 H   0  0  0  0  0  0  0  0  0  0  0  0
   24.9910  -25.7950  -11.2946 H   0  0  0  0  0  0  0  0  0  0  0  0
   20.7820  -23.2420  -10.8270 H   0  0  0  0  0  0  0  0  0  0  0  0
  1  2  1  0
  2  3  1  0
  3  4  2  0
  4  5  1  0
  5  6  1  0
  6  7  1  0
  7  8  1  0
  8  9  1  0
  9 10  1  0
  8 11  1  0
 11 12  1  0
 11 13  1  0
 13 14  1  0
 13 15  1  0
 15 16  1  0
  4 17  1  0
 17 18  2  0
 18 19  1  0
 19 20  1  0
 20 21  1  0
 21 22  1  0
 22 23  2  0
 23 24  1  0
 24 25  1  0
 24 26  2  0
 26 27  1  0
 26 28  1  0
 20 29  2  0
 29 30  1  0
 30 31  2  0
 30 32  1  0
 32 33  2  0
 33 34  1  0
 33  3  1  0
 15  6  1  0
 32 18  1  0
 28 21  2  0
  1 35  1  0
  1 36  1  0
  1 37  1  0
  6 38  1  1
  8 39  1  1
  9 40  1  0
  9 41  1  0
 10 42  1  0
 11 43  1  6
 12 44  1  0
 13 45  1  1
 14 46  1  0
 15 47  1  6
 16 48  1  0
 17 49  1  0
 22 50  1  0
 23 51  1  0
 25 52  1  0
 27 53  1  0
 28 54  1  0
 29 55  1  0
 34 56  1  0
M  END
>  <meeko>  (1) 
{"is_sidechain": [false], "free_energy": -8.786, "intermolecular_energy": -13.152, "internal_energy": -1.054}

$$$$
Nepitrin_120742_out
     RDKit          3D

 56 59  0  0  0  0  0  0  0  0999 V2000
   18.6080  -24.3510   -9.4590 C   0  0  0  0  0  0  0  0  0  0  0  0
   19.2090  -24.7640  -10.6840 O   0  0  0  0  0  0  0  0  0  0  0  0
   18.8980  -26.0130  -11.1360 C   0  0  0  0  0  0  0  0  0  0  0  0
   19.8720  -27.0120  -11.1390 C   0  0  0  0  0  0  0  0  0  0  0  0
   21.1350  -26.7500  -10.6920 O   0  0  0  0  0  0  0  0  0  0  0  0
   22.1430  -26.5820  -11.6890 C   0  0  2  0  0  0  0  0  0  0  0  0
   23.1260  -27.6070  -11.5560 O   0  0  0  0  0  0  0  0  0  0  0  0
   24.1550  -27.5110  -12.5430 C   0  0  2  0  0  0  0  0  0  0  0  0
   25.0660  -28.7230  -12.3770 C   0  0  0  0  0  0  0  0  0  0  0  0
   26.2510  -28.3080  -11.7220 O   0  0  0  0  0  0  0  0  0  0  0  0
   24.9220  -26.1980  -12.3720 C   0  0  1  0  0  0  0  0  0  0  0  0
   25.8870  -26.0770  -13.4130 O   0  0  0  0  0  0  0  0  0  0  0  0
   23.9690  -25.0020  -12.4240 C   0  0  2  0  0  0  0  0  0  0  0  0
   24.6960  -23.8400  -12.0220 O   0  0  0  0  0  0  0  0  0  0  0  0
   22.7750  -25.2050  -11.4920 C   0  0  1  0  0  0  0  0  0  0  0  0
   21.7840  -24.2150  -11.7690 O   0  0  0  0  0  0  0  0  0  0  0  0
   19.5630  -28.2930  -11.6000 C   0  0  0  0  0  0  0  0  0  0  0  0
   18.2750  -28.5720  -12.0580 C   0  0  0  0  0  0  0  0  0  0  0  0
   18.0300  -29.8460  -12.4980 O   0  0  0  0  0  0  0  0  0  0  0  0
   16.7560  -30.1560  -12.9520 C   0  0  0  0  0  0  0  0  0  0  0  0
   16.6050  -31.5520  -13.4080 C   0  0  0  0  0  0  0  0  0  0  0  0
   16.4300  -32.5790  -12.4760 C   0  0  0  0  0  0  0  0  0  0  0  0
   16.2880  -33.8980  -12.9060 C   0  0  0  0  0  0  0  0  0  0  0  0
   16.3190  -34.1950  -14.2690 C   0  0  0  0  0  0  0  0  0  0  0  0
   16.1800  -35.4870  -14.6760 O   0  0  0  0  0  0  0  0  0  0  0  0
   16.4950  -33.1730  -15.2020 C   0  0  0  0  0  0  0  0  0  0  0  0
   16.5270  -33.4500  -16.5350 O   0  0  0  0  0  0  0  0  0  0  0  0
   16.6360  -31.8530  -14.7720 C   0  0  0  0  0  0  0  0  0  0  0  0
   15.7400  -29.2800  -13.0040 C   0  0  0  0  0  0  0  0  0  0  0  0
   15.9540  -27.8940  -12.5450 C   0  0  0  0  0  0  0  0  0  0  0  0
   15.0530  -27.0670  -12.5730 O   0  0  0  0  0  0  0  0  0  0  0  0
   17.3030  -27.5720  -12.0550 C   0  0  0  0  0  0  0  0  0  0  0  0
   17.6100  -26.2900  -11.5940 C   0  0  0  0  0  0  0  0  0  0  0  0
   16.6840  -25.2880  -11.5750 O   0  0  0  0  0  0  0  0  0  0  0  0
   19.1879  -24.7495   -8.6134 H   0  0  0  0  0  0  0  0  0  0  0  0
   18.5949  -23.2522   -9.4092 H   0  0  0  0  0  0  0  0  0  0  0  0
   17.5775  -24.7326   -9.4092 H   0  0  0  0  0  0  0  0  0  0  0  0
   21.7085  -26.6532  -12.6970 H   0  0  0  0  0  0  0  0  0  0  0  0
   23.7331  -27.5068  -13.5589 H   0  0  0  0  0  0  0  0  0  0  0  0
   24.5576  -29.4895  -11.7737 H   0  0  0  0  0  0  0  0  0  0  0  0
   25.3090  -29.1495  -13.3614 H   0  0  0  0  0  0  0  0  0  0  0  0
   27.0070  -28.8730  -12.0180 H   0  0  0  0  0  0  0  0  0  0  0  0
   25.4215  -26.2075  -11.3920 H   0  0  0  0  0  0  0  0  0  0  0  0
   26.6440  -25.5230  -13.0980 H   0  0  0  0  0  0  0  0  0  0  0  0
   23.5814  -24.8903  -13.4474 H   0  0  0  0  0  0  0  0  0  0  0  0
   25.6650  -24.0450  -12.0110 H   0  0  0  0  0  0  0  0  0  0  0  0
   23.1372  -25.1216  -10.4567 H   0  0  0  0  0  0  0  0  0  0  0  0
   21.5990  -23.6950  -10.9470 H   0  0  0  0  0  0  0  0  0  0  0  0
   20.3321  -29.0794  -11.6021 H   0  0  0  0  0  0  0  0  0  0  0  0
   16.4042  -32.3463  -11.4012 H   0  0  0  0  0  0  0  0  0  0  0  0
   16.1515  -34.7045  -12.1705 H   0  0  0  0  0  0  0  0  0  0  0  0
   16.9800  -36.0260  -14.8970 H   0  0  0  0  0  0  0  0  0  0  0  0
   16.6630  -34.3810  -16.8430 H   0  0  0  0  0  0  0  0  0  0  0  0
   16.7719  -31.0475  -15.5087 H   0  0  0  0  0  0  0  0  0  0  0  0
   14.7567  -29.5927  -13.3854 H   0  0  0  0  0  0  0  0  0  0  0  0
   16.2850  -24.9990  -10.7160 H   0  0  0  0  0  0  0  0  0  0  0  0
  1  2  1  0
  2  3  1  0
  3  4  2  0
  4  5  1  0
  5  6  1  0
  6  7  1  0
  7  8  1  0
  8  9  1  0
  9 10  1  0
  8 11  1  0
 11 12  1  0
 11 13  1  0
 13 14  1  0
 13 15  1  0
 15 16  1  0
  4 17  1  0
 17 18  2  0
 18 19  1  0
 19 20  1  0
 20 21  1  0
 21 22  1  0
 22 23  2  0
 23 24  1  0
 24 25  1  0
 24 26  2  0
 26 27  1  0
 26 28  1  0
 20 29  2  0
 29 30  1  0
 30 31  2  0
 30 32  1  0
 32 33  2  0
 33 34  1  0
 33  3  1  0
 15  6  1  0
 32 18  1  0
 28 21  2  0
  1 35  1  0
  1 36  1  0
  1 37  1  0
  6 38  1  6
  8 39  1  6
  9 40  1  0
  9 41  1  0
 10 42  1  0
 11 43  1  1
 12 44  1  0
 13 45  1  6
 14 46  1  0
 15 47  1  1
 16 48  1  0
 17 49  1  0
 22 50  1  0
 23 51  1  0
 25 52  1  0
 27 53  1  0
 28 54  1  0
 29 55  1  0
 34 56  1  0
M  END
>  <meeko>  (2) 
{"is_sidechain": [false], "free_energy": -7.231, "intermolecular_energy": -10.742, "internal_energy": -1.136}

$$$$
