Bavachinin_10337211_out
     RDKit          3D

 47 49  0  0  0  0  0  0  0  0999 V2000
   33.4980   76.1730   18.7550 C   0  0  0  0  0  0  0  0  0  0  0  0
   33.5270   75.1730   19.7710 O   0  0  0  0  0  0  0  0  0  0  0  0
   32.4990   74.2780   19.7880 C   0  0  0  0  0  0  0  0  0  0  0  0
   32.3080   73.4400   18.6890 C   0  0  0  0  0  0  0  0  0  0  0  0
   31.2670   72.5110   18.6950 C   0  0  0  0  0  0  0  0  0  0  0  0
   30.4010   72.4440   19.7890 C   0  0  0  0  0  0  0  0  0  0  0  0
   30.5910   73.2810   20.8920 C   0  0  0  0  0  0  0  0  0  0  0  0
   31.6460   74.1950   20.8890 C   0  0  0  0  0  0  0  0  0  0  0  0
   31.8410   75.0860   22.0720 C   0  0  0  0  0  0  0  0  0  0  0  0
   31.0460   76.3650   21.9790 C   0  0  0  0  0  0  0  0  0  0  0  0
   31.5070   77.6300   21.9730 C   0  0  0  0  0  0  0  0  0  0  0  0
   30.6550   78.8630   21.8770 C   0  0  0  0  0  0  0  0  0  0  0  0
   32.9840   77.9030   22.0760 C   0  0  0  0  0  0  0  0  0  0  0  0
   29.2550   71.5130   19.7440 C   0  0  0  0  0  0  0  0  0  0  0  0
   28.4620   71.4290   20.6760 O   0  0  0  0  0  0  0  0  0  0  0  0
   29.0870   70.7360   18.4640 C   0  0  0  0  0  0  0  0  0  0  0  0
   30.4620   70.4820   17.8500 C   0  0  1  0  0  0  0  0  0  0  0  0
   30.3460   69.7090   16.5540 C   0  0  0  0  0  0  0  0  0  0  0  0
   30.0700   68.3430   16.5800 C   0  0  0  0  0  0  0  0  0  0  0  0
   29.9630   67.6300   15.3860 C   0  0  0  0  0  0  0  0  0  0  0  0
   30.1320   68.2850   14.1650 C   0  0  0  0  0  0  0  0  0  0  0  0
   30.0280   67.5890   13.0000 O   0  0  0  0  0  0  0  0  0  0  0  0
   30.4080   69.6510   14.1400 C   0  0  0  0  0  0  0  0  0  0  0  0
   30.5150   70.3640   15.3340 C   0  0  0  0  0  0  0  0  0  0  0  0
   31.1430   71.7180   17.5830 O   0  0  0  0  0  0  0  0  0  0  0  0
   33.4691   77.1688   19.2214 H   0  0  0  0  0  0  0  0  0  0  0  0
   34.3990   76.0869   18.1299 H   0  0  0  0  0  0  0  0  0  0  0  0
   32.6035   76.0348   18.1299 H   0  0  0  0  0  0  0  0  0  0  0  0
   32.9772   73.5116   17.8189 H   0  0  0  0  0  0  0  0  0  0  0  0
   29.9137   73.2199   21.7566 H   0  0  0  0  0  0  0  0  0  0  0  0
   31.5284   74.5430   22.9761 H   0  0  0  0  0  0  0  0  0  0  0  0
   32.9057   75.3601   22.1078 H   0  0  0  0  0  0  0  0  0  0  0  0
   29.9544   76.2497   21.9072 H   0  0  0  0  0  0  0  0  0  0  0  0
   30.4093   79.2186   22.8885 H   0  0  0  0  0  0  0  0  0  0  0  0
   31.2047   79.6473   21.3361 H   0  0  0  0  0  0  0  0  0  0  0  0
   29.7269   78.6262   21.3361 H   0  0  0  0  0  0  0  0  0  0  0  0
   33.2739   77.9566   23.1357 H   0  0  0  0  0  0  0  0  0  0  0  0
   33.5418   77.0928   21.5838 H   0  0  0  0  0  0  0  0  0  0  0  0
   33.2154   78.8591   21.5838 H   0  0  0  0  0  0  0  0  0  0  0  0
   28.5959   69.7753   18.6780 H   0  0  0  0  0  0  0  0  0  0  0  0
   28.4670   71.3106   17.7601 H   0  0  0  0  0  0  0  0  0  0  0  0
   31.0359   69.8930   18.5805 H   0  0  0  0  0  0  0  0  0  0  0  0
   29.9365   67.8272   17.5424 H   0  0  0  0  0  0  0  0  0  0  0  0
   29.7455   66.5519   15.4066 H   0  0  0  0  0  0  0  0  0  0  0  0
   29.1580   67.5370   12.5310 H   0  0  0  0  0  0  0  0  0  0  0  0
   30.5415   70.1672   13.1778 H   0  0  0  0  0  0  0  0  0  0  0  0
   30.7325   71.4421   15.3136 H   0  0  0  0  0  0  0  0  0  0  0  0
  1  2  1  0
  2  3  1  0
  3  4  1  0
  4  5  2  0
  5  6  1  0
  6  7  2  0
  7  8  1  0
  8  9  1  0
  9 10  1  0
 10 11  2  3
 11 12  1  0
 11 13  1  0
  6 14  1  0
 14 15  2  0
 14 16  1  0
 16 17  1  0
 17 18  1  0
 18 19  1  0
 19 20  2  0
 20 21  1  0
 21 22  1  0
 21 23  2  0
 23 24  1  0
 17 25  1  0
  8  3  2  0
 24 18  2  0
 25  5  1  0
  1 26  1  0
  1 27  1  0
  1 28  1  0
  4 29  1  0
  7 30  1  0
  9 31  1  0
  9 32  1  0
 10 33  1  0
 12 34  1  0
 12 35  1  0
 12 36  1  0
 13 37  1  0
 13 38  1  0
 13 39  1  0
 16 40  1  0
 16 41  1  0
 17 42  1  1
 19 43  1  0
 20 44  1  0
 22 45  1  0
 23 46  1  0
 24 47  1  0
M  END
>  <meeko>  (1) 
{"is_sidechain": [false], "free_energy": -8.165, "intermolecular_energy": -10.313, "internal_energy": -0.903}

$$$$
Bavachinin_10337211_out
     RDKit          3D

 47 49  0  0  0  0  0  0  0  0999 V2000
   28.9200   72.9720   23.1220 C   0  0  0  0  0  0  0  0  0  0  0  0
   29.4080   74.1490   22.4840 O   0  0  0  0  0  0  0  0  0  0  0  0
   30.3620   73.9830   21.5260 C   0  0  0  0  0  0  0  0  0  0  0  0
   30.1280   73.0900   20.4790 C   0  0  0  0  0  0  0  0  0  0  0  0
   31.0900   72.9170   19.4840 C   0  0  0  0  0  0  0  0  0  0  0  0
   32.2980   73.6160   19.5550 C   0  0  0  0  0  0  0  0  0  0  0  0
   32.5340   74.5120   20.6000 C   0  0  0  0  0  0  0  0  0  0  0  0
   31.5600   74.6970   21.5820 C   0  0  0  0  0  0  0  0  0  0  0  0
   31.8220   75.6570   22.6970 C   0  0  0  0  0  0  0  0  0  0  0  0
   32.6360   76.8510   22.2610 C   0  0  0  0  0  0  0  0  0  0  0  0
   32.1930   78.0780   21.9250 C   0  0  0  0  0  0  0  0  0  0  0  0
   33.0620   79.2260   21.4990 C   0  0  0  0  0  0  0  0  0  0  0  0
   30.7210   78.3900   21.9490 C   0  0  0  0  0  0  0  0  0  0  0  0
   33.3380   73.3590   18.5380 C   0  0  0  0  0  0  0  0  0  0  0  0
   34.4180   73.9400   18.5670 O   0  0  0  0  0  0  0  0  0  0  0  0
   33.0170   72.2970   17.5200 C   0  0  0  0  0  0  0  0  0  0  0  0
   31.5100   72.2850   17.2700 C   0  0  1  0  0  0  0  0  0  0  0  0
   31.1340   71.2250   16.2560 C   0  0  0  0  0  0  0  0  0  0  0  0
   29.8200   71.1340   15.8000 C   0  0  0  0  0  0  0  0  0  0  0  0
   29.4720   70.1580   14.8660 C   0  0  0  0  0  0  0  0  0  0  0  0
   30.4400   69.2730   14.3880 C   0  0  0  0  0  0  0  0  0  0  0  0
   30.1010   68.3210   13.4770 O   0  0  0  0  0  0  0  0  0  0  0  0
   31.7540   69.3650   14.8460 C   0  0  0  0  0  0  0  0  0  0  0  0
   32.1020   70.3410   15.7790 C   0  0  0  0  0  0  0  0  0  0  0  0
   30.7890   72.0270   18.4850 O   0  0  0  0  0  0  0  0  0  0  0  0
   28.9723   73.0981   24.2135 H   0  0  0  0  0  0  0  0  0  0  0  0
   27.8758   72.7987   22.8225 H   0  0  0  0  0  0  0  0  0  0  0  0
   29.5352   72.1107   22.8225 H   0  0  0  0  0  0  0  0  0  0  0  0
   29.1860   72.5234   20.4387 H   0  0  0  0  0  0  0  0  0  0  0  0
   33.4817   75.0684   20.6487 H   0  0  0  0  0  0  0  0  0  0  0  0
   30.8576   76.0130   23.0883 H   0  0  0  0  0  0  0  0  0  0  0  0
   32.4016   75.1232   23.4646 H   0  0  0  0  0  0  0  0  0  0  0  0
   33.7246   76.7008   22.2116 H   0  0  0  0  0  0  0  0  0  0  0  0
   33.4518   79.7409   22.3894 H   0  0  0  0  0  0  0  0  0  0  0  0
   33.9015   78.8470   20.8977 H   0  0  0  0  0  0  0  0  0  0  0  0
   32.4693   79.9311   20.8977 H   0  0  0  0  0  0  0  0  0  0  0  0
   30.3785   78.4626   22.9918 H   0  0  0  0  0  0  0  0  0  0  0  0
   30.5405   79.3464   21.4364 H   0  0  0  0  0  0  0  0  0  0  0  0
   30.1680   77.5891   21.4364 H   0  0  0  0  0  0  0  0  0  0  0  0
   33.5448   72.5159   16.5800 H   0  0  0  0  0  0  0  0  0  0  0  0
   33.3387   71.3142   17.8950 H   0  0  0  0  0  0  0  0  0  0  0  0
   31.2408   73.2786   16.8824 H   0  0  0  0  0  0  0  0  0  0  0  0
   29.0575   71.8317   16.1766 H   0  0  0  0  0  0  0  0  0  0  0  0
   28.4350   70.0858   14.5062 H   0  0  0  0  0  0  0  0  0  0  0  0
   30.6450   68.2030   12.6590 H   0  0  0  0  0  0  0  0  0  0  0  0
   32.5167   68.6668   14.4708 H   0  0  0  0  0  0  0  0  0  0  0  0
   33.1390   70.4139   16.1386 H   0  0  0  0  0  0  0  0  0  0  0  0
  1  2  1  0
  2  3  1  0
  3  4  1  0
  4  5  2  0
  5  6  1  0
  6  7  2  0
  7  8  1  0
  8  9  1  0
  9 10  1  0
 10 11  2  3
 11 12  1  0
 11 13  1  0
  6 14  1  0
 14 15  2  0
 14 16  1  0
 16 17  1  0
 17 18  1  0
 18 19  1  0
 19 20  2  0
 20 21  1  0
 21 22  1  0
 21 23  2  0
 23 24  1  0
 17 25  1  0
  8  3  2  0
 24 18  2  0
 25  5  1  0
  1 26  1  0
  1 27  1  0
  1 28  1  0
  4 29  1  0
  7 30  1  0
  9 31  1  0
  9 32  1  0
 10 33  1  0
 12 34  1  0
 12 35  1  0
 12 36  1  0
 13 37  1  0
 13 38  1  0
 13 39  1  0
 16 40  1  0
 16 41  1  0
 17 42  1  6
 19 43  1  0
 20 44  1  0
 22 45  1  0
 23 46  1  0
 24 47  1  0
M  END
>  <meeko>  (2) 
{"is_sidechain": [false], "free_energy": -7.72, "intermolecular_energy": -9.794, "internal_energy": -0.86}

$$$$
Bavachinin_10337211_out
     RDKit          3D

 47 49  0  0  0  0  0  0  0  0999 V2000
   31.0830   71.1820   16.0610 C   0  0  0  0  0  0  0  0  0  0  0  0
   31.4160   70.5840   17.3120 O   0  0  0  0  0  0  0  0  0  0  0  0
   30.9690   71.2110   18.4360 C   0  0  0  0  0  0  0  0  0  0  0  0
   31.5020   72.4550   18.7780 C   0  0  0  0  0  0  0  0  0  0  0  0
   31.0480   73.1160   19.9190 C   0  0  0  0  0  0  0  0  0  0  0  0
   30.0830   72.5170   20.7330 C   0  0  0  0  0  0  0  0  0  0  0  0
   29.5460   71.2730   20.3910 C   0  0  0  0  0  0  0  0  0  0  0  0
   29.9890   70.6250   19.2380 C   0  0  0  0  0  0  0  0  0  0  0  0
   29.4100   69.2950   18.8810 C   0  0  0  0  0  0  0  0  0  0  0  0
   30.2280   68.1410   19.4050 C   0  0  0  0  0  0  0  0  0  0  0  0
   29.9890   67.3780   20.4890 C   0  0  0  0  0  0  0  0  0  0  0  0
   30.8490   66.2390   20.9550 C   0  0  0  0  0  0  0  0  0  0  0  0
   28.7820   67.6370   21.3510 C   0  0  0  0  0  0  0  0  0  0  0  0
   29.6730   73.1930   21.9810 C   0  0  0  0  0  0  0  0  0  0  0  0
   28.8390   72.6990   22.7310 O   0  0  0  0  0  0  0  0  0  0  0  0
   30.3940   74.4760   22.3030 C   0  0  0  0  0  0  0  0  0  0  0  0
   30.7740   75.1750   20.9980 C   0  0  1  0  0  0  0  0  0  0  0  0
   31.5100   76.4700   21.2680 C   0  0  0  0  0  0  0  0  0  0  0  0
   32.6440   76.4710   22.0780 C   0  0  0  0  0  0  0  0  0  0  0  0
   33.3230   77.6640   22.3270 C   0  0  0  0  0  0  0  0  0  0  0  0
   32.8650   78.8570   21.7660 C   0  0  0  0  0  0  0  0  0  0  0  0
   33.5270   80.0210   22.0100 O   0  0  0  0  0  0  0  0  0  0  0  0
   31.7300   78.8550   20.9560 C   0  0  0  0  0  0  0  0  0  0  0  0
   31.0520   77.6620   20.7070 C   0  0  0  0  0  0  0  0  0  0  0  0
   31.6140   74.3350   20.1910 O   0  0  0  0  0  0  0  0  0  0  0  0
   30.5547   72.1306   16.2371 H   0  0  0  0  0  0  0  0  0  0  0  0
   32.0034   71.3753   15.4904 H   0  0  0  0  0  0  0  0  0  0  0  0
   30.4340   70.5014   15.4904 H   0  0  0  0  0  0  0  0  0  0  0  0
   32.2790   72.9133   18.1485 H   0  0  0  0  0  0  0  0  0  0  0  0
   28.7787   70.8077   21.0272 H   0  0  0  0  0  0  0  0  0  0  0  0
   28.3967   69.2280   19.3038 H   0  0  0  0  0  0  0  0  0  0  0  0
   29.4002   69.2222   17.7835 H   0  0  0  0  0  0  0  0  0  0  0  0
   31.1322   67.8915   18.8304 H   0  0  0  0  0  0  0  0  0  0  0  0
   30.8651   66.2177   22.0547 H   0  0  0  0  0  0  0  0  0  0  0  0
   30.4392   65.2912   20.5759 H   0  0  0  0  0  0  0  0  0  0  0  0
   31.8728   66.3736   20.5759 H   0  0  0  0  0  0  0  0  0  0  0  0
   29.0686   67.5755   22.4112 H   0  0  0  0  0  0  0  0  0  0  0  0
   28.3862   68.6405   21.1358 H   0  0  0  0  0  0  0  0  0  0  0  0
   28.0094   66.8842   21.1358 H   0  0  0  0  0  0  0  0  0  0  0  0
   29.7361   75.1304   22.8937 H   0  0  0  0  0  0  0  0  0  0  0  0
   31.3015   74.2562   22.8844 H   0  0  0  0  0  0  0  0  0  0  0  0
   29.8371   75.3878   20.4623 H   0  0  0  0  0  0  0  0  0  0  0  0
   33.0039   75.5308   22.5212 H   0  0  0  0  0  0  0  0  0  0  0  0
   34.2189   77.6643   22.9652 H   0  0  0  0  0  0  0  0  0  0  0  0
   33.0210   80.8660   22.1080 H   0  0  0  0  0  0  0  0  0  0  0  0
   31.3692   79.7950   20.5131 H   0  0  0  0  0  0  0  0  0  0  0  0
   30.1564   77.6611   20.0684 H   0  0  0  0  0  0  0  0  0  0  0  0
  1  2  1  0
  2  3  1  0
  3  4  1  0
  4  5  2  0
  5  6  1  0
  6  7  2  0
  7  8  1  0
  8  9  1  0
  9 10  1  0
 10 11  2  3
 11 12  1  0
 11 13  1  0
  6 14  1  0
 14 15  2  0
 14 16  1  0
 16 17  1  0
 17 18  1  0
 18 19  1  0
 19 20  2  0
 20 21  1  0
 21 22  1  0
 21 23  2  0
 23 24  1  0
 17 25  1  0
  8  3  2  0
 24 18  2  0
 25  5  1  0
  1 26  1  0
  1 27  1  0
  1 28  1  0
  4 29  1  0
  7 30  1  0
  9 31  1  0
  9 32  1  0
 10 33  1  0
 12 34  1  0
 12 35  1  0
 12 36  1  0
 13 37  1  0
 13 38  1  0
 13 39  1  0
 16 40  1  0
 16 41  1  0
 17 42  1  6
 19 43  1  0
 20 44  1  0
 22 45  1  0
 23 46  1  0
 24 47  1  0
M  END
>  <meeko>  (3) 
{"is_sidechain": [false], "free_energy": -7.663, "intermolecular_energy": -9.732, "internal_energy": -0.851}

$$$$
Bavachinin_10337211_out
     RDKit          3D

 47 49  0  0  0  0  0  0  0  0999 V2000
   28.8300   72.8610   23.2640 C   0  0  0  0  0  0  0  0  0  0  0  0
   29.9670   73.5200   22.7110 O   0  0  0  0  0  0  0  0  0  0  0  0
   29.9770   73.7090   21.3620 C   0  0  0  0  0  0  0  0  0  0  0  0
   30.1520   72.6080   20.5220 C   0  0  0  0  0  0  0  0  0  0  0  0
   30.1530   72.7810   19.1380 C   0  0  0  0  0  0  0  0  0  0  0  0
   30.0100   74.0620   18.5980 C   0  0  0  0  0  0  0  0  0  0  0  0
   29.8330   75.1660   19.4360 C   0  0  0  0  0  0  0  0  0  0  0  0
   29.8120   74.9840   20.8190 C   0  0  0  0  0  0  0  0  0  0  0  0
   29.6230   76.1700   21.7070 C   0  0  0  0  0  0  0  0  0  0  0  0
   28.6420   77.1700   21.1460 C   0  0  0  0  0  0  0  0  0  0  0  0
   28.8710   78.4520   20.8010 C   0  0  0  0  0  0  0  0  0  0  0  0
   27.8440   79.3960   20.2450 C   0  0  0  0  0  0  0  0  0  0  0  0
   30.2410   79.0520   20.9650 C   0  0  0  0  0  0  0  0  0  0  0  0
   30.0960   74.2390   17.1330 C   0  0  0  0  0  0  0  0  0  0  0  0
   29.9880   75.3450   16.6160 O   0  0  0  0  0  0  0  0  0  0  0  0
   30.3950   72.9970   16.3360 C   0  0  0  0  0  0  0  0  0  0  0  0
   29.7910   71.7890   17.0500 C   0  0  1  0  0  0  0  0  0  0  0  0
   30.0710   70.5100   16.2890 C   0  0  0  0  0  0  0  0  0  0  0  0
   29.7460   70.4180   14.9370 C   0  0  0  0  0  0  0  0  0  0  0  0
   30.0030   69.2410   14.2350 C   0  0  0  0  0  0  0  0  0  0  0  0
   30.5870   68.1540   14.8880 C   0  0  0  0  0  0  0  0  0  0  0  0
   30.8370   67.0050   14.2030 O   0  0  0  0  0  0  0  0  0  0  0  0
   30.9120   68.2460   16.2400 C   0  0  0  0  0  0  0  0  0  0  0  0
   30.6540   69.4240   16.9420 C   0  0  0  0  0  0  0  0  0  0  0  0
   30.3250   71.6540   18.3760 O   0  0  0  0  0  0  0  0  0  0  0  0
   28.8856   72.8932   24.3621 H   0  0  0  0  0  0  0  0  0  0  0  0
   27.9132   73.3677   22.9283 H   0  0  0  0  0  0  0  0  0  0  0  0
   28.8140   71.8136   22.9283 H   0  0  0  0  0  0  0  0  0  0  0  0
   30.2890   71.6045   20.9513 H   0  0  0  0  0  0  0  0  0  0  0  0
   29.7110   76.1720   19.0081 H   0  0  0  0  0  0  0  0  0  0  0  0
   29.2520   75.8230   22.6827 H   0  0  0  0  0  0  0  0  0  0  0  0
   30.5961   76.6751   21.7967 H   0  0  0  0  0  0  0  0  0  0  0  0
   27.6136   76.8077   21.0009 H   0  0  0  0  0  0  0  0  0  0  0  0
   27.3105   79.8864   21.0726 H   0  0  0  0  0  0  0  0  0  0  0  0
   28.3424   80.1578   19.6275 H   0  0  0  0  0  0  0  0  0  0  0  0
   27.1268   78.8353   19.6275 H   0  0  0  0  0  0  0  0  0  0  0  0
   30.4713   79.1529   22.0359 H   0  0  0  0  0  0  0  0  0  0  0  0
   30.9869   78.3982   20.4895 H   0  0  0  0  0  0  0  0  0  0  0  0
   30.2663   80.0436   20.4895 H   0  0  0  0  0  0  0  0  0  0  0  0
   29.9560   73.0890   15.3316 H   0  0  0  0  0  0  0  0  0  0  0  0
   31.4836   72.8679   16.2444 H   0  0  0  0  0  0  0  0  0  0  0  0
   28.7053   71.9576   17.1029 H   0  0  0  0  0  0  0  0  0  0  0  0
   29.2862   71.2749   14.4230 H   0  0  0  0  0  0  0  0  0  0  0  0
   29.7459   69.1690   13.1679 H   0  0  0  0  0  0  0  0  0  0  0  0
   30.1740   66.6610   13.5540 H   0  0  0  0  0  0  0  0  0  0  0  0
   31.3723   67.3894   16.7542 H   0  0  0  0  0  0  0  0  0  0  0  0
   30.9101   69.4962   18.0093 H   0  0  0  0  0  0  0  0  0  0  0  0
  1  2  1  0
  2  3  1  0
  3  4  1  0
  4  5  2  0
  5  6  1  0
  6  7  2  0
  7  8  1  0
  8  9  1  0
  9 10  1  0
 10 11  2  3
 11 12  1  0
 11 13  1  0
  6 14  1  0
 14 15  2  0
 14 16  1  0
 16 17  1  0
 17 18  1  0
 18 19  1  0
 19 20  2  0
 20 21  1  0
 21 22  1  0
 21 23  2  0
 23 24  1  0
 17 25  1  0
  8  3  2  0
 24 18  2  0
 25  5  1  0
  1 26  1  0
  1 27  1  0
  1 28  1  0
  4 29  1  0
  7 30  1  0
  9 31  1  0
  9 32  1  0
 10 33  1  0
 12 34  1  0
 12 35  1  0
 12 36  1  0
 13 37  1  0
 13 38  1  0
 13 39  1  0
 16 40  1  0
 16 41  1  0
 17 42  1  1
 19 43  1  0
 20 44  1  0
 22 45  1  0
 23 46  1  0
 24 47  1  0
M  END
>  <meeko>  (4) 
{"is_sidechain": [false], "free_energy": -7.103, "intermolecular_energy": -9.011, "internal_energy": -0.864}

$$$$
Bavachinin_10337211_out
     RDKit          3D

 47 49  0  0  0  0  0  0  0  0999 V2000
   30.5070   80.9570   17.7090 C   0  0  0  0  0  0  0  0  0  0  0  0
   31.8390   80.4530   17.7800 O   0  0  0  0  0  0  0  0  0  0  0  0
   32.1260   79.6100   18.8120 C   0  0  0  0  0  0  0  0  0  0  0  0
   31.4990   78.3650   18.8680 C   0  0  0  0  0  0  0  0  0  0  0  0
   31.7900   77.4850   19.9100 C   0  0  0  0  0  0  0  0  0  0  0  0
   32.6870   77.8660   20.9120 C   0  0  0  0  0  0  0  0  0  0  0  0
   33.3190   79.1120   20.8570 C   0  0  0  0  0  0  0  0  0  0  0  0
   33.0390   79.9800   19.8010 C   0  0  0  0  0  0  0  0  0  0  0  0
   33.7180   81.3090   19.7510 C   0  0  0  0  0  0  0  0  0  0  0  0
   34.6000   81.5610   20.9490 C   0  0  0  0  0  0  0  0  0  0  0  0
   35.1000   82.7360   21.3790 C   0  0  0  0  0  0  0  0  0  0  0  0
   35.9750   82.9150   22.5860 C   0  0  0  0  0  0  0  0  0  0  0  0
   34.8030   84.0090   20.6320 C   0  0  0  0  0  0  0  0  0  0  0  0
   32.9220   76.9570   22.0520 C   0  0  0  0  0  0  0  0  0  0  0  0
   33.6910   77.2540   22.9590 O   0  0  0  0  0  0  0  0  0  0  0  0
   32.1090   75.6890   22.0620 C   0  0  0  0  0  0  0  0  0  0  0  0
   31.8430   75.2560   20.6210 C   0  0  1  0  0  0  0  0  0  0  0  0
   31.0190   73.9860   20.5770 C   0  0  0  0  0  0  0  0  0  0  0  0
   30.0860   73.7260   21.5790 C   0  0  0  0  0  0  0  0  0  0  0  0
   29.3280   72.5560   21.5390 C   0  0  0  0  0  0  0  0  0  0  0  0
   29.5030   71.6470   20.4950 C   0  0  0  0  0  0  0  0  0  0  0  0
   28.7630   70.5050   20.4570 O   0  0  0  0  0  0  0  0  0  0  0  0
   30.4370   71.9080   19.4930 C   0  0  0  0  0  0  0  0  0  0  0  0
   31.1950   73.0770   19.5330 C   0  0  0  0  0  0  0  0  0  0  0  0
   31.1390   76.2790   19.8980 O   0  0  0  0  0  0  0  0  0  0  0  0
   30.1162   81.1049   18.7265 H   0  0  0  0  0  0  0  0  0  0  0  0
   30.5065   81.9175   17.1728 H   0  0  0  0  0  0  0  0  0  0  0  0
   29.8708   80.2374   17.1728 H   0  0  0  0  0  0  0  0  0  0  0  0
   30.7756   78.0776   18.0908 H   0  0  0  0  0  0  0  0  0  0  0  0
   34.0323   79.4061   21.6411 H   0  0  0  0  0  0  0  0  0  0  0  0
   34.3375   81.3531   18.8431 H   0  0  0  0  0  0  0  0  0  0  0  0
   32.9345   82.0811   19.7486 H   0  0  0  0  0  0  0  0  0  0  0  0
   34.8679   80.6761   21.5450 H   0  0  0  0  0  0  0  0  0  0  0  0
   35.3719   82.7916   23.4976 H   0  0  0  0  0  0  0  0  0  0  0  0
   36.7771   82.1623   22.5723 H   0  0  0  0  0  0  0  0  0  0  0  0
   36.4170   83.9222   22.5723 H   0  0  0  0  0  0  0  0  0  0  0  0
   34.6138   84.8201   21.3505 H   0  0  0  0  0  0  0  0  0  0  0  0
   35.6638   84.2725   19.9999 H   0  0  0  0  0  0  0  0  0  0  0  0
   33.9145   83.8644   19.9999 H   0  0  0  0  0  0  0  0  0  0  0  0
   32.6650   74.8988   22.5877 H   0  0  0  0  0  0  0  0  0  0  0  0
   31.1541   75.8644   22.5792 H   0  0  0  0  0  0  0  0  0  0  0  0
   32.8224   75.0775   20.1530 H   0  0  0  0  0  0  0  0  0  0  0  0
   29.9474   74.4434   22.4013 H   0  0  0  0  0  0  0  0  0  0  0  0
   28.5923   72.3499   22.3304 H   0  0  0  0  0  0  0  0  0  0  0  0
   29.2130   69.6250   20.4060 H   0  0  0  0  0  0  0  0  0  0  0  0
   30.5757   71.1909   18.6705 H   0  0  0  0  0  0  0  0  0  0  0  0
   31.9314   73.2829   18.7422 H   0  0  0  0  0  0  0  0  0  0  0  0
  1  2  1  0
  2  3  1  0
  3  4  1  0
  4  5  2  0
  5  6  1  0
  6  7  2  0
  7  8  1  0
  8  9  1  0
  9 10  1  0
 10 11  2  3
 11 12  1  0
 11 13  1  0
  6 14  1  0
 14 15  2  0
 14 16  1  0
 16 17  1  0
 17 18  1  0
 18 19  1  0
 19 20  2  0
 20 21  1  0
 21 22  1  0
 21 23  2  0
 23 24  1  0
 17 25  1  0
  8  3  2  0
 24 18  2  0
 25  5  1  0
  1 26  1  0
  1 27  1  0
  1 28  1  0
  4 29  1  0
  7 30  1  0
  9 31  1  0
  9 32  1  0
 10 33  1  0
 12 34  1  0
 12 35  1  0
 12 36  1  0
 13 37  1  0
 13 38  1  0
 13 39  1  0
 16 40  1  0
 16 41  1  0
 17 42  1  6
 19 43  1  0
 20 44  1  0
 22 45  1  0
 23 46  1  0
 24 47  1  0
M  END
>  <meeko>  (5) 
{"is_sidechain": [false], "free_energy": -7.074, "intermolecular_energy": -9.114, "internal_energy": -0.725}

$$$$
Bavachinin_10337211_out
     RDKit          3D

 47 49  0  0  0  0  0  0  0  0999 V2000
   32.2500   76.7820   17.1120 C   0  0  0  0  0  0  0  0  0  0  0  0
   31.0040   76.8150   17.8030 O   0  0  0  0  0  0  0  0  0  0  0  0
   30.4550   75.6160   18.1470 C   0  0  0  0  0  0  0  0  0  0  0  0
   30.4570   74.5750   17.2180 C   0  0  0  0  0  0  0  0  0  0  0  0
   29.9100   73.3370   17.5580 C   0  0  0  0  0  0  0  0  0  0  0  0
   29.3330   73.1540   18.8170 C   0  0  0  0  0  0  0  0  0  0  0  0
   29.3320   74.1950   19.7510 C   0  0  0  0  0  0  0  0  0  0  0  0
   29.8990   75.4240   19.4130 C   0  0  0  0  0  0  0  0  0  0  0  0
   29.8910   76.5300   20.4160 C   0  0  0  0  0  0  0  0  0  0  0  0
   31.2390   76.7440   21.0610 C   0  0  0  0  0  0  0  0  0  0  0  0
   31.7830   76.0670   22.0900 C   0  0  0  0  0  0  0  0  0  0  0  0
   33.1370   76.3350   22.6840 C   0  0  0  0  0  0  0  0  0  0  0  0
   31.0270   74.9450   22.7490 C   0  0  0  0  0  0  0  0  0  0  0  0
   28.6850   71.8650   19.1320 C   0  0  0  0  0  0  0  0  0  0  0  0
   28.1560   71.6630   20.2190 O   0  0  0  0  0  0  0  0  0  0  0  0
   28.6530   70.8540   18.0150 C   0  0  0  0  0  0  0  0  0  0  0  0
   29.8950   71.0340   17.1440 C   0  0  1  0  0  0  0  0  0  0  0  0
   29.9060   70.0430   15.9990 C   0  0  0  0  0  0  0  0  0  0  0  0
   30.3400   70.4430   14.7360 C   0  0  0  0  0  0  0  0  0  0  0  0
   30.3500   69.5310   13.6810 C   0  0  0  0  0  0  0  0  0  0  0  0
   29.9270   68.2170   13.8900 C   0  0  0  0  0  0  0  0  0  0  0  0
   29.9370   67.3270   12.8610 O   0  0  0  0  0  0  0  0  0  0  0  0
   29.4930   67.8180   15.1540 C   0  0  0  0  0  0  0  0  0  0  0  0
   29.4830   68.7300   16.2090 C   0  0  0  0  0  0  0  0  0  0  0  0
   29.9510   72.3610   16.5960 O   0  0  0  0  0  0  0  0  0  0  0  0
   33.0732   76.7602   17.8413 H   0  0  0  0  0  0  0  0  0  0  0  0
   32.2955   75.8823   16.4807 H   0  0  0  0  0  0  0  0  0  0  0  0
   32.3430   77.6780   16.4807 H   0  0  0  0  0  0  0  0  0  0  0  0
   30.8894   74.7300   16.2185 H   0  0  0  0  0  0  0  0  0  0  0  0
   28.8870   74.0456   20.7458 H   0  0  0  0  0  0  0  0  0  0  0  0
   29.5912   77.4602   19.9112 H   0  0  0  0  0  0  0  0  0  0  0  0
   29.1838   76.2512   21.2110 H   0  0  0  0  0  0  0  0  0  0  0  0
   31.8527   77.5530   20.6381 H   0  0  0  0  0  0  0  0  0  0  0  0
   33.0652   76.3208   23.7816 H   0  0  0  0  0  0  0  0  0  0  0  0
   33.8429   75.5591   22.3526 H   0  0  0  0  0  0  0  0  0  0  0  0
   33.4941   77.3212   22.3526 H   0  0  0  0  0  0  0  0  0  0  0  0
   31.0966   75.0483   23.8419 H   0  0  0  0  0  0  0  0  0  0  0  0
   29.9711   74.9852   22.4434 H   0  0  0  0  0  0  0  0  0  0  0  0
   31.4608   73.9814   22.4434 H   0  0  0  0  0  0  0  0  0  0  0  0
   28.6430   69.8383   18.4373 H   0  0  0  0  0  0  0  0  0  0  0  0
   27.7485   71.0015   17.4067 H   0  0  0  0  0  0  0  0  0  0  0  0
   30.7683   70.8616   17.7902 H   0  0  0  0  0  0  0  0  0  0  0  0
   30.6745   71.4779   14.5716 H   0  0  0  0  0  0  0  0  0  0  0  0
   30.6912   69.8469   12.6841 H   0  0  0  0  0  0  0  0  0  0  0  0
   29.6410   67.6100   11.9600 H   0  0  0  0  0  0  0  0  0  0  0  0
   29.1584   66.7832   15.3189 H   0  0  0  0  0  0  0  0  0  0  0  0
   29.1419   68.4145   17.2060 H   0  0  0  0  0  0  0  0  0  0  0  0
  1  2  1  0
  2  3  1  0
  3  4  1  0
  4  5  2  0
  5  6  1  0
  6  7  2  0
  7  8  1  0
  8  9  1  0
  9 10  1  0
 10 11  2  3
 11 12  1  0
 11 13  1  0
  6 14  1  0
 14 15  2  0
 14 16  1  0
 16 17  1  0
 17 18  1  0
 18 19  1  0
 19 20  2  0
 20 21  1  0
 21 22  1  0
 21 23  2  0
 23 24  1  0
 17 25  1  0
  8  3  2  0
 24 18  2  0
 25  5  1  0
  1 26  1  0
  1 27  1  0
  1 28  1  0
  4 29  1  0
  7 30  1  0
  9 31  1  0
  9 32  1  0
 10 33  1  0
 12 34  1  0
 12 35  1  0
 12 36  1  0
 13 37  1  0
 13 38  1  0
 13 39  1  0
 16 40  1  0
 16 41  1  0
 17 42  1  1
 19 43  1  0
 20 44  1  0
 22 45  1  0
 23 46  1  0
 24 47  1  0
M  END
>  <meeko>  (6) 
{"is_sidechain": [false], "free_energy": -6.911, "intermolecular_energy": -8.892, "internal_energy": -0.74}

$$$$
Bavachinin_10337211_out
     RDKit          3D

 47 49  0  0  0  0  0  0  0  0999 V2000
   34.6500   78.9370   20.4480 C   0  0  0  0  0  0  0  0  0  0  0  0
   33.4250   78.6330   21.1110 O   0  0  0  0  0  0  0  0  0  0  0  0
   32.2740   78.8570   20.4160 C   0  0  0  0  0  0  0  0  0  0  0  0
   32.3510   79.2540   19.0810 C   0  0  0  0  0  0  0  0  0  0  0  0
   31.1820   79.4770   18.3520 C   0  0  0  0  0  0  0  0  0  0  0  0
   29.9380   79.3310   18.9720 C   0  0  0  0  0  0  0  0  0  0  0  0
   29.8580   78.9310   20.3080 C   0  0  0  0  0  0  0  0  0  0  0  0
   31.0300   78.6900   21.0270 C   0  0  0  0  0  0  0  0  0  0  0  0
   30.9340   78.2640   22.4550 C   0  0  0  0  0  0  0  0  0  0  0  0
   30.3330   76.8890   22.6160 C   0  0  0  0  0  0  0  0  0  0  0  0
   30.9650   75.7000   22.5960 C   0  0  0  0  0  0  0  0  0  0  0  0
   30.3020   74.3630   22.7640 C   0  0  0  0  0  0  0  0  0  0  0  0
   32.4540   75.6320   22.3850 C   0  0  0  0  0  0  0  0  0  0  0  0
   28.7130   79.6500   18.2100 C   0  0  0  0  0  0  0  0  0  0  0  0
   27.6010   79.5480   18.7160 O   0  0  0  0  0  0  0  0  0  0  0  0
   28.9230   80.1720   16.8130 C   0  0  0  0  0  0  0  0  0  0  0  0
   30.1920   79.5500   16.2330 C   0  0  1  0  0  0  0  0  0  0  0  0
   30.4520   80.0510   14.8280 C   0  0  0  0  0  0  0  0  0  0  0  0
   30.7140   81.4020   14.6080 C   0  0  0  0  0  0  0  0  0  0  0  0
   30.9540   81.8640   13.3140 C   0  0  0  0  0  0  0  0  0  0  0  0
   30.9320   80.9730   12.2400 C   0  0  0  0  0  0  0  0  0  0  0  0
   31.1650   81.4250   10.9770 O   0  0  0  0  0  0  0  0  0  0  0  0
   30.6690   79.6220   12.4610 C   0  0  0  0  0  0  0  0  0  0  0  0
   30.4300   79.1600   13.7550 C   0  0  0  0  0  0  0  0  0  0  0  0
   31.3360   79.8610   17.0450 O   0  0  0  0  0  0  0  0  0  0  0  0
   35.4331   79.1313   21.1956 H   0  0  0  0  0  0  0  0  0  0  0  0
   34.9473   78.0854   19.8184 H   0  0  0  0  0  0  0  0  0  0  0  0
   34.5147   79.8288   19.8184 H   0  0  0  0  0  0  0  0  0  0  0  0
   33.3323   79.3912   18.6032 H   0  0  0  0  0  0  0  0  0  0  0  0
   28.8774   78.8067   20.7906 H   0  0  0  0  0  0  0  0  0  0  0  0
   31.9448   78.2588   22.8889 H   0  0  0  0  0  0  0  0  0  0  0  0
   30.2728   78.9768   22.9695 H   0  0  0  0  0  0  0  0  0  0  0  0
   29.2442   76.8537   22.7685 H   0  0  0  0  0  0  0  0  0  0  0  0
   30.1917   74.1405   23.8356 H   0  0  0  0  0  0  0  0  0  0  0  0
   29.3097   74.3836   22.2897 H   0  0  0  0  0  0  0  0  0  0  0  0
   30.9190   73.5856   22.2897 H   0  0  0  0  0  0  0  0  0  0  0  0
   32.9619   75.6088   23.3605 H   0  0  0  0  0  0  0  0  0  0  0  0
   32.7031   74.7215   21.8202 H   0  0  0  0  0  0  0  0  0  0  0  0
   32.7850   76.5160   21.8202 H   0  0  0  0  0  0  0  0  0  0  0  0
   28.0606   79.9026   16.1855 H   0  0  0  0  0  0  0  0  0  0  0  0
   29.0247   81.2670   16.8377 H   0  0  0  0  0  0  0  0  0  0  0  0
   30.0356   78.4614   16.2138 H   0  0  0  0  0  0  0  0  0  0  0  0
   30.7315   82.1039   15.4548 H   0  0  0  0  0  0  0  0  0  0  0  0
   31.1606   82.9303   13.1400 H   0  0  0  0  0  0  0  0  0  0  0  0
   31.0290   82.3810   10.7610 H   0  0  0  0  0  0  0  0  0  0  0  0
   30.6500   78.9200   11.6144 H   0  0  0  0  0  0  0  0  0  0  0  0
   30.2243   78.0936   13.9294 H   0  0  0  0  0  0  0  0  0  0  0  0
  1  2  1  0
  2  3  1  0
  3  4  1  0
  4  5  2  0
  5  6  1  0
  6  7  2  0
  7  8  1  0
  8  9  1  0
  9 10  1  0
 10 11  2  3
 11 12  1  0
 11 13  1  0
  6 14  1  0
 14 15  2  0
 14 16  1  0
 16 17  1  0
 17 18  1  0
 18 19  1  0
 19 20  2  0
 20 21  1  0
 21 22  1  0
 21 23  2  0
 23 24  1  0
 17 25  1  0
  8  3  2  0
 24 18  2  0
 25  5  1  0
  1 26  1  0
  1 27  1  0
  1 28  1  0
  4 29  1  0
  7 30  1  0
  9 31  1  0
  9 32  1  0
 10 33  1  0
 12 34  1  0
 12 35  1  0
 12 36  1  0
 13 37  1  0
 13 38  1  0
 13 39  1  0
 16 40  1  0
 16 41  1  0
 17 42  1  6
 19 43  1  0
 20 44  1  0
 22 45  1  0
 23 46  1  0
 24 47  1  0
M  END
>  <meeko>  (7) 
{"is_sidechain": [false], "free_energy": -6.804, "intermolecular_energy": -8.639, "internal_energy": -0.858}

$$$$
Bavachinin_10337211_out
     RDKit          3D

 47 49  0  0  0  0  0  0  0  0999 V2000
   30.9770   74.7290   22.7590 C   0  0  0  0  0  0  0  0  0  0  0  0
   31.9500   75.1420   21.8020 O   0  0  0  0  0  0  0  0  0  0  0  0
   31.6160   75.0190   20.4870 C   0  0  0  0  0  0  0  0  0  0  0  0
   31.4580   73.7440   19.9410 C   0  0  0  0  0  0  0  0  0  0  0  0
   31.1040   73.6010   18.6000 C   0  0  0  0  0  0  0  0  0  0  0  0
   30.9400   74.7340   17.7990 C   0  0  0  0  0  0  0  0  0  0  0  0
   31.0950   76.0120   18.3430 C   0  0  0  0  0  0  0  0  0  0  0  0
   31.4290   76.1500   19.6910 C   0  0  0  0  0  0  0  0  0  0  0  0
   31.5940   77.5190   20.2630 C   0  0  0  0  0  0  0  0  0  0  0  0
   30.4090   78.4130   19.9930 C   0  0  0  0  0  0  0  0  0  0  0  0
   29.2970   78.5630   20.7380 C   0  0  0  0  0  0  0  0  0  0  0  0
   28.1500   79.4760   20.4090 C   0  0  0  0  0  0  0  0  0  0  0  0
   29.1200   77.7800   22.0110 C   0  0  0  0  0  0  0  0  0  0  0  0
   30.6460   74.5630   16.3610 C   0  0  0  0  0  0  0  0  0  0  0  0
   30.5060   75.5270   15.6170 O   0  0  0  0  0  0  0  0  0  0  0  0
   30.6050   73.1420   15.8610 C   0  0  0  0  0  0  0  0  0  0  0  0
   30.1070   72.2330   16.9830 C   0  0  1  0  0  0  0  0  0  0  0  0
   30.0540   70.7890   16.5320 C   0  0  0  0  0  0  0  0  0  0  0  0
   30.4730   69.7750   17.3920 C   0  0  0  0  0  0  0  0  0  0  0  0
   30.4250   68.4440   16.9780 C   0  0  0  0  0  0  0  0  0  0  0  0
   29.9570   68.1280   15.7010 C   0  0  0  0  0  0  0  0  0  0  0  0
   29.9110   66.8290   15.2970 O   0  0  0  0  0  0  0  0  0  0  0  0
   29.5390   69.1430   14.8420 C   0  0  0  0  0  0  0  0  0  0  0  0
   29.5870   70.4730   15.2560 C   0  0  0  0  0  0  0  0  0  0  0  0
   30.9620   72.3190   18.1340 O   0  0  0  0  0  0  0  0  0  0  0  0
   31.3675   74.8948   23.7739 H   0  0  0  0  0  0  0  0  0  0  0  0
   30.0555   75.3136   22.6207 H   0  0  0  0  0  0  0  0  0  0  0  0
   30.7574   73.6601   22.6207 H   0  0  0  0  0  0  0  0  0  0  0  0
   31.6126   72.8534   20.5678 H   0  0  0  0  0  0  0  0  0  0  0  0
   30.9547   76.9028   17.7131 H   0  0  0  0  0  0  0  0  0  0  0  0
   31.7271   77.4313   21.3514 H   0  0  0  0  0  0  0  0  0  0  0  0
   32.4702   77.9761   19.7798 H   0  0  0  0  0  0  0  0  0  0  0  0
   30.4594   79.0165   19.0747 H   0  0  0  0  0  0  0  0  0  0  0  0
   27.6924   79.8402   21.3406 H   0  0  0  0  0  0  0  0  0  0  0  0
   28.5183   80.3308   19.8227 H   0  0  0  0  0  0  0  0  0  0  0  0
   27.3996   78.9254   19.8227 H   0  0  0  0  0  0  0  0  0  0  0  0
   29.2703   78.4449   22.8743 H   0  0  0  0  0  0  0  0  0  0  0  0
   28.1041   77.3594   22.0446 H   0  0  0  0  0  0  0  0  0  0  0  0
   29.8562   76.9634   22.0446 H   0  0  0  0  0  0  0  0  0  0  0  0
   29.9228   73.0734   15.0009 H   0  0  0  0  0  0  0  0  0  0  0  0
   31.6124   72.8290   15.5493 H   0  0  0  0  0  0  0  0  0  0  0  0
   29.0952   72.5743   17.2469 H   0  0  0  0  0  0  0  0  0  0  0  0
   30.8417   70.0248   18.3978 H   0  0  0  0  0  0  0  0  0  0  0  0
   30.7555   67.6440   17.6568 H   0  0  0  0  0  0  0  0  0  0  0  0
   30.6750   66.2260   15.4810 H   0  0  0  0  0  0  0  0  0  0  0  0
   29.1707   68.8940   13.8359 H   0  0  0  0  0  0  0  0  0  0  0  0
   29.2569   71.2730   14.5770 H   0  0  0  0  0  0  0  0  0  0  0  0
  1  2  1  0
  2  3  1  0
  3  4  1  0
  4  5  2  0
  5  6  1  0
  6  7  2  0
  7  8  1  0
  8  9  1  0
  9 10  1  0
 10 11  2  3
 11 12  1  0
 11 13  1  0
  6 14  1  0
 14 15  2  0
 14 16  1  0
 16 17  1  0
 17 18  1  0
 18 19  1  0
 19 20  2  0
 20 21  1  0
 21 22  1  0
 21 23  2  0
 23 24  1  0
 17 25  1  0
  8  3  2  0
 24 18  2  0
 25  5  1  0
  1 26  1  0
  1 27  1  0
  1 28  1  0
  4 29  1  0
  7 30  1  0
  9 31  1  0
  9 32  1  0
 10 33  1  0
 12 34  1  0
 12 35  1  0
 12 36  1  0
 13 37  1  0
 13 38  1  0
 13 39  1  0
 16 40  1  0
 16 41  1  0
 17 42  1  1
 19 43  1  0
 20 44  1  0
 22 45  1  0
 23 46  1  0
 24 47  1  0
M  END
>  <meeko>  (8) 
{"is_sidechain": [false], "free_energy": -6.798, "intermolecular_energy": -8.562, "internal_energy": -0.928}

$$$$
Bavachinin_10337211_out
     RDKit          3D

 47 49  0  0  0  0  0  0  0  0999 V2000
   26.2190   79.5420   19.2060 C   0  0  0  0  0  0  0  0  0  0  0  0
   27.3770   80.1640   19.7580 O   0  0  0  0  0  0  0  0  0  0  0  0
   28.5090   80.1460   18.9990 C   0  0  0  0  0  0  0  0  0  0  0  0
   28.4880   80.7320   17.7320 C   0  0  0  0  0  0  0  0  0  0  0  0
   29.6410   80.7330   16.9470 C   0  0  0  0  0  0  0  0  0  0  0  0
   30.8050   80.1200   17.4190 C   0  0  0  0  0  0  0  0  0  0  0  0
   30.8290   79.5350   18.6880 C   0  0  0  0  0  0  0  0  0  0  0  0
   29.6790   79.5550   19.4780 C   0  0  0  0  0  0  0  0  0  0  0  0
   29.7140   78.9260   20.8320 C   0  0  0  0  0  0  0  0  0  0  0  0
   31.1180   78.6870   21.3300 C   0  0  0  0  0  0  0  0  0  0  0  0
   31.5790   77.6420   22.0440 C   0  0  0  0  0  0  0  0  0  0  0  0
   32.9960   77.4670   22.5090 C   0  0  0  0  0  0  0  0  0  0  0  0
   30.6510   76.5290   22.4500 C   0  0  0  0  0  0  0  0  0  0  0  0
   31.9920   80.0580   16.5430 C   0  0  0  0  0  0  0  0  0  0  0  0
   33.0310   79.5200   16.9100 O   0  0  0  0  0  0  0  0  0  0  0  0
   31.8200   80.6260   15.1580 C   0  0  0  0  0  0  0  0  0  0  0  0
   30.8160   81.7770   15.2130 C   0  0  1  0  0  0  0  0  0  0  0  0
   30.6020   82.3800   13.8410 C   0  0  0  0  0  0  0  0  0  0  0  0
   29.9280   83.5930   13.7100 C   0  0  0  0  0  0  0  0  0  0  0  0
   29.7300   84.1480   12.4470 C   0  0  0  0  0  0  0  0  0  0  0  0
   30.2070   83.4900   11.3130 C   0  0  0  0  0  0  0  0  0  0  0  0
   30.0140   84.0320   10.0790 O   0  0  0  0  0  0  0  0  0  0  0  0
   30.8810   82.2760   11.4440 C   0  0  0  0  0  0  0  0  0  0  0  0
   31.0790   81.7210   12.7080 C   0  0  0  0  0  0  0  0  0  0  0  0
   29.5470   81.3300   15.7160 O   0  0  0  0  0  0  0  0  0  0  0  0
   25.5674   79.1920   20.0202 H   0  0  0  0  0  0  0  0  0  0  0  0
   25.6731   80.2683   18.5859 H   0  0  0  0  0  0  0  0  0  0  0  0
   26.5230   78.6858   18.5859 H   0  0  0  0  0  0  0  0  0  0  0  0
   27.5635   81.1923   17.3533 H   0  0  0  0  0  0  0  0  0  0  0  0
   31.7489   79.0617   19.0618 H   0  0  0  0  0  0  0  0  0  0  0  0
   29.1978   79.5898   21.5412 H   0  0  0  0  0  0  0  0  0  0  0  0
   29.2189   77.9467   20.7549 H   0  0  0  0  0  0  0  0  0  0  0  0
   31.8568   79.4623   21.0788 H   0  0  0  0  0  0  0  0  0  0  0  0
   33.0233   77.4636   23.6087 H   0  0  0  0  0  0  0  0  0  0  0  0
   33.3913   76.5132   22.1295 H   0  0  0  0  0  0  0  0  0  0  0  0
   33.6115   78.2960   22.1295 H   0  0  0  0  0  0  0  0  0  0  0  0
   30.6041   76.4727   23.5476 H   0  0  0  0  0  0  0  0  0  0  0  0
   29.6455   76.7255   22.0496 H   0  0  0  0  0  0  0  0  0  0  0  0
   31.0251   75.5752   22.0496 H   0  0  0  0  0  0  0  0  0  0  0  0
   32.7873   80.9978   14.7892 H   0  0  0  0  0  0  0  0  0  0  0  0
   31.4511   79.8434   14.4787 H   0  0  0  0  0  0  0  0  0  0  0  0
   31.2358   82.5369   15.8886 H   0  0  0  0  0  0  0  0  0  0  0  0
   29.5522   84.1125   14.6038 H   0  0  0  0  0  0  0  0  0  0  0  0
   29.1975   85.1050   12.3442 H   0  0  0  0  0  0  0  0  0  0  0  0
   29.1130   84.3440    9.8120 H   0  0  0  0  0  0  0  0  0  0  0  0
   31.2565   81.7562   10.5502 H   0  0  0  0  0  0  0  0  0  0  0  0
   31.6112   80.7639   12.8114 H   0  0  0  0  0  0  0  0  0  0  0  0
  1  2  1  0
  2  3  1  0
  3  4  1  0
  4  5  2  0
  5  6  1  0
  6  7  2  0
  7  8  1  0
  8  9  1  0
  9 10  1  0
 10 11  2  3
 11 12  1  0
 11 13  1  0
  6 14  1  0
 14 15  2  0
 14 16  1  0
 16 17  1  0
 17 18  1  0
 18 19  1  0
 19 20  2  0
 20 21  1  0
 21 22  1  0
 21 23  2  0
 23 24  1  0
 17 25  1  0
  8  3  2  0
 24 18  2  0
 25  5  1  0
  1 26  1  0
  1 27  1  0
  1 28  1  0
  4 29  1  0
  7 30  1  0
  9 31  1  0
  9 32  1  0
 10 33  1  0
 12 34  1  0
 12 35  1  0
 12 36  1  0
 13 37  1  0
 13 38  1  0
 13 39  1  0
 16 40  1  0
 16 41  1  0
 17 42  1  1
 19 43  1  0
 20 44  1  0
 22 45  1  0
 23 46  1  0
 24 47  1  0
M  END
>  <meeko>  (9) 
{"is_sidechain": [false], "free_energy": -6.584, "intermolecular_energy": -8.448, "internal_energy": -0.771}

$$$$
