SCHEMBL29564401_10008594_out
     RDKit          3D

 88 92  0  0  0  0  0  0  0  0999 V2000
   29.3960   73.6670   18.5860 C   0  0  0  0  0  0  0  0  0  0  0  0
   30.2620   72.6320   19.3520 C   0  0  2  0  0  0  0  0  0  0  0  0
   29.6060   72.3820   20.7410 C   0  0  0  0  0  0  0  0  0  0  0  0
   29.6530   73.5990   21.6670 C   0  0  0  0  0  0  0  0  0  0  0  0
   31.0670   74.1460   21.8370 C   0  0  2  0  0  0  0  0  0  0  0  0
   31.0000   75.3560   22.5850 O   0  0  0  0  0  0  0  0  0  0  0  0
   32.1540   76.0900   22.6300 C   0  0  0  0  0  0  0  0  0  0  0  0
   33.2840   75.6360   22.7550 O   0  0  0  0  0  0  0  0  0  0  0  0
   31.8300   77.5630   22.5370 C   0  0  0  0  0  0  0  0  0  0  0  0
   30.3360   77.8360   22.3440 C   0  0  0  0  0  0  0  0  0  0  0  0
   30.0280   78.8770   21.2580 C   0  0  0  0  0  0  0  0  0  0  0  0
   30.5780   78.5450   19.8950 C   0  0  0  0  0  0  0  0  0  0  0  0
   30.1840   77.3720   19.2510 C   0  0  0  0  0  0  0  0  0  0  0  0
   30.6930   77.0650   17.9890 C   0  0  0  0  0  0  0  0  0  0  0  0
   31.5950   77.9320   17.3710 C   0  0  0  0  0  0  0  0  0  0  0  0
   32.1090   77.6210   16.0950 N   0  0  0  0  0  0  0  0  0  0  0  0
   31.2170   77.4550   14.9650 C   0  0  0  0  0  0  0  0  0  0  0  0
   31.4880   76.1440   14.2450 C   0  0  0  0  0  0  0  0  0  0  0  0
   31.0370   74.7440   15.2500 Cl  0  0  0  0  0  0  0  0  0  0  0  0
   33.5350   77.4510   15.8990 C   0  0  0  0  0  0  0  0  0  0  0  0
   34.0870   76.3710   16.8180 C   0  0  0  0  0  0  0  0  0  0  0  0
   34.8840   75.0750   15.8930 Cl  0  0  0  0  0  0  0  0  0  0  0  0
   31.9880   79.1040   18.0150 C   0  0  0  0  0  0  0  0  0  0  0  0
   31.4800   79.4110   19.2770 C   0  0  0  0  0  0  0  0  0  0  0  0
   31.7490   74.4080   20.4950 C   0  0  0  0  0  0  0  0  0  0  0  0
   31.7090   73.1610   19.6030 C   0  0  2  0  0  0  0  0  0  0  0  0
   32.4750   73.3840   18.2960 C   0  0  0  0  0  0  0  0  0  0  0  0
   32.5850   72.0740   17.5210 C   0  0  0  0  0  0  0  0  0  0  0  0
   31.2140   71.4310   17.2440 C   0  0  1  0  0  0  0  0  0  0  0  0
   31.3410   70.0970   16.4430 C   0  0  1  0  0  0  0  0  0  0  0  0
   32.2450   69.0520   17.1240 C   0  0  0  0  0  0  0  0  0  0  0  0
   32.4280   67.8370   16.2310 C   0  0  0  0  0  0  0  0  0  0  0  0
   31.1400   67.2440   15.7220 C   0  0  0  0  0  0  0  0  0  0  0  0
   31.0840   66.0640   15.3750 O   0  0  0  0  0  0  0  0  0  0  0  0
   30.0820   68.1080   15.5730 N   0  0  0  0  0  0  0  0  0  0  0  0
   29.9530   69.4610   16.1450 C   0  0  2  0  0  0  0  0  0  0  0  0
   29.1860   70.3060   15.1070 C   0  0  0  0  0  0  0  0  0  0  0  0
   29.1260   69.3380   17.4440 C   0  0  0  0  0  0  0  0  0  0  0  0
   29.0050   70.6450   18.2240 C   0  0  0  0  0  0  0  0  0  0  0  0
   30.3730   71.2790   18.5430 C   0  0  2  0  0  0  0  0  0  0  0  0
   28.8629   74.3042   19.3069 H   0  0  0  0  0  0  0  0  0  0  0  0
   30.0445   74.2916   17.9540 H   0  0  0  0  0  0  0  0  0  0  0  0
   28.6668   73.1389   17.9540 H   0  0  0  0  0  0  0  0  0  0  0  0
   28.5532   72.1048   20.5838 H   0  0  0  0  0  0  0  0  0  0  0  0
   30.1802   71.5813   21.2302 H   0  0  0  0  0  0  0  0  0  0  0  0
   29.0168   74.3900   21.2434 H   0  0  0  0  0  0  0  0  0  0  0  0
   29.2950   73.2810   22.6573 H   0  0  0  0  0  0  0  0  0  0  0  0
   31.6678   73.3915   22.3659 H   0  0  0  0  0  0  0  0  0  0  0  0
   32.1589   78.0535   23.4650 H   0  0  0  0  0  0  0  0  0  0  0  0
   32.3536   77.9600   21.6548 H   0  0  0  0  0  0  0  0  0  0  0  0
   29.8444   76.8916   22.0676 H   0  0  0  0  0  0  0  0  0  0  0  0
   29.9614   78.2455   23.2937 H   0  0  0  0  0  0  0  0  0  0  0  0
   28.9353   78.9710   21.1732 H   0  0  0  0  0  0  0  0  0  0  0  0
   30.5188   79.8097   21.5729 H   0  0  0  0  0  0  0  0  0  0  0  0
   29.4722   76.6893   19.7381 H   0  0  0  0  0  0  0  0  0  0  0  0
   30.3834   76.1397   17.4811 H   0  0  0  0  0  0  0  0  0  0  0  0
   30.1772   77.4601   15.3238 H   0  0  0  0  0  0  0  0  0  0  0  0
   31.3858   78.2830   14.2607 H   0  0  0  0  0  0  0  0  0  0  0  0
   30.9026   76.1195   13.3141 H   0  0  0  0  0  0  0  0  0  0  0  0
   32.5653   76.0833   14.0309 H   0  0  0  0  0  0  0  0  0  0  0  0
   33.7228   77.1643   14.8537 H   0  0  0  0  0  0  0  0  0  0  0  0
   34.0367   78.4012   16.1341 H   0  0  0  0  0  0  0  0  0  0  0  0
   34.8190   76.8238   17.5030 H   0  0  0  0  0  0  0  0  0  0  0  0
   33.2484   75.9311   17.3777 H   0  0  0  0  0  0  0  0  0  0  0  0
   32.6992   79.7871   17.5276 H   0  0  0  0  0  0  0  0  0  0  0  0
   31.7906   80.3360   19.7849 H   0  0  0  0  0  0  0  0  0  0  0  0
   31.2308   75.2325   19.9835 H   0  0  0  0  0  0  0  0  0  0  0  0
   32.8007   74.6699   20.6827 H   0  0  0  0  0  0  0  0  0  0  0  0
   32.2241   72.3641   20.1594 H   0  0  0  0  0  0  0  0  0  0  0  0
   31.9407   74.1251   17.6834 H   0  0  0  0  0  0  0  0  0  0  0  0
   33.4859   73.7494   18.5297 H   0  0  0  0  0  0  0  0  0  0  0  0
   33.0805   72.2744   16.5596 H   0  0  0  0  0  0  0  0  0  0  0  0
   33.1635   71.3705   18.1378 H   0  0  0  0  0  0  0  0  0  0  0  0
   30.6567   72.1221   16.5946 H   0  0  0  0  0  0  0  0  0  0  0  0
   31.8206   70.3856   15.4961 H   0  0  0  0  0  0  0  0  0  0  0  0
   33.2279   69.5023   17.3270 H   0  0  0  0  0  0  0  0  0  0  0  0
   31.7704   68.7322   18.0634 H   0  0  0  0  0  0  0  0  0  0  0  0
   33.0368   68.1345   15.3645 H   0  0  0  0  0  0  0  0  0  0  0  0
   32.9106   67.0631   16.8459 H   0  0  0  0  0  0  0  0  0  0  0  0
   29.2950   67.7740   14.9980 H   0  0  0  0  0  0  0  0  0  0  0  0
   28.5347   71.0236   15.6275 H   0  0  0  0  0  0  0  0  0  0  0  0
   29.9032   70.8521   14.4767 H   0  0  0  0  0  0  0  0  0  0  0  0
   28.5732   69.6448   14.4767 H   0  0  0  0  0  0  0  0  0  0  0  0
   28.1141   68.9969   17.1799 H   0  0  0  0  0  0  0  0  0  0  0  0
   29.6546   68.6250   18.0938 H   0  0  0  0  0  0  0  0  0  0  0  0
   28.4180   71.3579   17.6263 H   0  0  0  0  0  0  0  0  0  0  0  0
   28.5152   70.4150   19.1817 H   0  0  0  0  0  0  0  0  0  0  0  0
   30.9028   70.5897   19.2170 H   0  0  0  0  0  0  0  0  0  0  0  0
  2  1  1  6
  2  3  1  0
  3  4  1  0
  4  5  1  0
  5  6  1  0
  6  7  1  0
  7  8  2  0
  7  9  1  0
  9 10  1  0
 10 11  1  0
 11 12  1  0
 12 13  1  0
 13 14  2  0
 14 15  1  0
 15 16  1  0
 16 17  1  0
 17 18  1  0
 18 19  1  0
 16 20  1  0
 20 21  1  0
 21 22  1  0
 15 23  2  0
 23 24  1  0
  5 25  1  0
 25 26  1  0
 26 27  1  0
 27 28  1  0
 28 29  1  0
 29 30  1  0
 30 31  1  0
 31 32  1  0
 32 33  1  0
 33 34  2  0
 33 35  1  0
 35 36  1  0
 36 37  1  6
 36 38  1  0
 38 39  1  0
 39 40  1  0
 26  2  1  0
 40 29  1  0
 40  2  1  0
 24 12  2  0
 36 30  1  0
  1 41  1  0
  1 42  1  0
  1 43  1  0
  3 44  1  0
  3 45  1  0
  4 46  1  0
  4 47  1  0
  5 48  1  1
  9 49  1  0
  9 50  1  0
 10 51  1  0
 10 52  1  0
 11 53  1  0
 11 54  1  0
 13 55  1  0
 14 56  1  0
 17 57  1  0
 17 58  1  0
 18 59  1  0
 18 60  1  0
 20 61  1  0
 20 62  1  0
 21 63  1  0
 21 64  1  0
 23 65  1  0
 24 66  1  0
 25 67  1  0
 25 68  1  0
 26 69  1  1
 27 70  1  0
 27 71  1  0
 28 72  1  0
 28 73  1  0
 29 74  1  6
 30 75  1  6
 31 76  1  0
 31 77  1  0
 32 78  1  0
 32 79  1  0
 35 80  1  0
 37 81  1  0
 37 82  1  0
 37 83  1  0
 38 84  1  0
 38 85  1  0
 39 86  1  0
 39 87  1  0
 40 88  1  1
M  END
>  <meeko>  (1) 
{"is_sidechain": [false], "free_energy": -8.014, "intermolecular_energy": -13.168, "internal_energy": -2.849}

$$$$
SCHEMBL29564401_10008594_out
     RDKit          3D

 88 92  0  0  0  0  0  0  0  0999 V2000
   28.1620   73.9860   19.4080 C   0  0  0  0  0  0  0  0  0  0  0  0
   29.6950   73.7510   19.4310 C   0  0  2  0  0  0  0  0  0  0  0  0
   30.1310   73.2410   18.0270 C   0  0  0  0  0  0  0  0  0  0  0  0
   29.5910   71.8510   17.6870 C   0  0  0  0  0  0  0  0  0  0  0  0
   29.9300   70.8180   18.7560 C   0  0  2  0  0  0  0  0  0  0  0  0
   29.2680   69.5990   18.4370 O   0  0  0  0  0  0  0  0  0  0  0  0
   30.0690   68.4930   18.3500 C   0  0  0  0  0  0  0  0  0  0  0  0
   30.2070   67.6410   19.2170 O   0  0  0  0  0  0  0  0  0  0  0  0
   30.7960   68.4890   17.0240 C   0  0  0  0  0  0  0  0  0  0  0  0
   32.2660   68.0820   17.1500 C   0  0  0  0  0  0  0  0  0  0  0  0
   33.1050   69.0360   18.0120 C   0  0  0  0  0  0  0  0  0  0  0  0
   33.3190   70.4020   17.4120 C   0  0  0  0  0  0  0  0  0  0  0  0
   33.4250   71.5190   18.2410 C   0  0  0  0  0  0  0  0  0  0  0  0
   33.6220   72.7820   17.6840 C   0  0  0  0  0  0  0  0  0  0  0  0
   33.7140   72.9290   16.3000 C   0  0  0  0  0  0  0  0  0  0  0  0
   33.9140   74.2070   15.7390 N   0  0  0  0  0  0  0  0  0  0  0  0
   33.1970   74.6050   14.5440 C   0  0  0  0  0  0  0  0  0  0  0  0
   31.7370   74.8930   14.8550 C   0  0  0  0  0  0  0  0  0  0  0  0
   30.6710   73.6170   14.2160 Cl  0  0  0  0  0  0  0  0  0  0  0  0
   34.8510   75.1350   16.3410 C   0  0  0  0  0  0  0  0  0  0  0  0
   34.1210   76.3000   16.9920 C   0  0  0  0  0  0  0  0  0  0  0  0
   34.0130   76.0960   18.7580 Cl  0  0  0  0  0  0  0  0  0  0  0  0
   33.6080   71.8120   15.4730 C   0  0  0  0  0  0  0  0  0  0  0  0
   33.4100   70.5480   16.0280 C   0  0  0  0  0  0  0  0  0  0  0  0
   29.5180   71.2770   20.1540 C   0  0  0  0  0  0  0  0  0  0  0  0
   30.0980   72.6600   20.4730 C   0  0  2  0  0  0  0  0  0  0  0  0
   29.7700   73.0860   21.9080 C   0  0  0  0  0  0  0  0  0  0  0  0
   30.5200   74.3680   22.2590 C   0  0  0  0  0  0  0  0  0  0  0  0
   30.2320   75.5150   21.2740 C   0  0  1  0  0  0  0  0  0  0  0  0
   30.9980   76.8210   21.6520 C   0  0  1  0  0  0  0  0  0  0  0  0
   32.5240   76.6330   21.7560 C   0  0  0  0  0  0  0  0  0  0  0  0
   33.1880   77.9060   22.2520 C   0  0  0  0  0  0  0  0  0  0  0  0
   32.8080   79.1440   21.4820 C   0  0  0  0  0  0  0  0  0  0  0  0
   33.5510   80.1260   21.4630 O   0  0  0  0  0  0  0  0  0  0  0  0
   31.5630   79.1490   20.9010 N   0  0  0  0  0  0  0  0  0  0  0  0
   30.6880   77.9840   20.6670 C   0  0  2  0  0  0  0  0  0  0  0  0
   29.2390   78.4790   20.8570 C   0  0  0  0  0  0  0  0  0  0  0  0
   30.9060   77.5280   19.2070 C   0  0  0  0  0  0  0  0  0  0  0  0
   30.1550   76.2500   18.8420 C   0  0  0  0  0  0  0  0  0  0  0  0
   30.4650   75.0810   19.7980 C   0  0  2  0  0  0  0  0  0  0  0  0
   27.7844   74.0439   20.4395 H   0  0  0  0  0  0  0  0  0  0  0  0
   27.9433   74.9282   18.8841 H   0  0  0  0  0  0  0  0  0  0  0  0
   27.6711   73.1526   18.8841 H   0  0  0  0  0  0  0  0  0  0  0  0
   29.7660   73.9508   17.2701 H   0  0  0  0  0  0  0  0  0  0  0  0
   31.2285   73.1679   18.0362 H   0  0  0  0  0  0  0  0  0  0  0  0
   28.4971   71.9114   17.5885 H   0  0  0  0  0  0  0  0  0  0  0  0
   30.0632   71.5285   16.7473 H   0  0  0  0  0  0  0  0  0  0  0  0
   31.0212   70.6795   18.7678 H   0  0  0  0  0  0  0  0  0  0  0  0
   30.2924   67.7802   16.3501 H   0  0  0  0  0  0  0  0  0  0  0  0
   30.7712   69.5164   16.6317 H   0  0  0  0  0  0  0  0  0  0  0  0
   32.3102   67.0793   17.6002 H   0  0  0  0  0  0  0  0  0  0  0  0
   32.6925   68.1096   16.1364 H   0  0  0  0  0  0  0  0  0  0  0  0
   32.5956   69.1622   18.9787 H   0  0  0  0  0  0  0  0  0  0  0  0
   34.1006   68.5774   18.1046 H   0  0  0  0  0  0  0  0  0  0  0  0
   33.3533   71.4035   19.3326 H   0  0  0  0  0  0  0  0  0  0  0  0
   33.7050   73.6635   18.3368 H   0  0  0  0  0  0  0  0  0  0  0  0
   33.6624   75.5119   14.1306 H   0  0  0  0  0  0  0  0  0  0  0  0
   33.2444   73.7815   13.8163 H   0  0  0  0  0  0  0  0  0  0  0  0
   31.6088   74.9531   15.9458 H   0  0  0  0  0  0  0  0  0  0  0  0
   31.4627   75.8445   14.3761 H   0  0  0  0  0  0  0  0  0  0  0  0
   35.4397   74.6068   17.1055 H   0  0  0  0  0  0  0  0  0  0  0  0
   35.5092   75.5297   15.5529 H   0  0  0  0  0  0  0  0  0  0  0  0
   34.6647   77.2306   16.7721 H   0  0  0  0  0  0  0  0  0  0  0  0
   33.0996   76.3385   16.5854 H   0  0  0  0  0  0  0  0  0  0  0  0
   33.6806   71.9276   14.3815 H   0  0  0  0  0  0  0  0  0  0  0  0
   33.3257   69.6670   15.3748 H   0  0  0  0  0  0  0  0  0  0  0  0
   28.4204   71.3265   20.2071 H   0  0  0  0  0  0  0  0  0  0  0  0
   29.9079   70.5563   20.8879 H   0  0  0  0  0  0  0  0  0  0  0  0
   31.1910   72.5641   20.3945 H   0  0  0  0  0  0  0  0  0  0  0  0
   28.6878   73.2617   21.9970 H   0  0  0  0  0  0  0  0  0  0  0  0
   30.0778   72.2880   22.5997 H   0  0  0  0  0  0  0  0  0  0  0  0
   30.2186   74.6867   23.2677 H   0  0  0  0  0  0  0  0  0  0  0  0
   31.5964   74.1476   22.2058 H   0  0  0  0  0  0  0  0  0  0  0  0
   29.1624   75.7570   21.3597 H   0  0  0  0  0  0  0  0  0  0  0  0
   30.6261   77.0827   22.6536 H   0  0  0  0  0  0  0  0  0  0  0  0
   32.7402   75.8151   22.4591 H   0  0  0  0  0  0  0  0  0  0  0  0
   32.9200   76.3925   20.7583 H   0  0  0  0  0  0  0  0  0  0  0  0
   32.9051   78.0546   23.3046 H   0  0  0  0  0  0  0  0  0  0  0  0
   34.2710   77.7702   22.1155 H   0  0  0  0  0  0  0  0  0  0  0  0
   31.2020   80.0650   20.5980 H   0  0  0  0  0  0  0  0  0  0  0  0
   29.0155   78.5553   21.9313 H   0  0  0  0  0  0  0  0  0  0  0  0
   29.1246   79.4672   20.3876 H   0  0  0  0  0  0  0  0  0  0  0  0
   28.5439   77.7673   20.3876 H   0  0  0  0  0  0  0  0  0  0  0  0
   30.5668   78.3326   18.5380 H   0  0  0  0  0  0  0  0  0  0  0  0
   31.9788   77.3121   19.0956 H   0  0  0  0  0  0  0  0  0  0  0  0
   29.0748   76.4551   18.8764 H   0  0  0  0  0  0  0  0  0  0  0  0
   30.4816   75.9500   17.8353 H   0  0  0  0  0  0  0  0  0  0  0  0
   31.5296   74.8327   19.6758 H   0  0  0  0  0  0  0  0  0  0  0  0
  2  1  1  6
  2  3  1  0
  3  4  1  0
  4  5  1  0
  5  6  1  0
  6  7  1  0
  7  8  2  0
  7  9  1  0
  9 10  1  0
 10 11  1  0
 11 12  1  0
 12 13  1  0
 13 14  2  0
 14 15  1  0
 15 16  1  0
 16 17  1  0
 17 18  1  0
 18 19  1  0
 16 20  1  0
 20 21  1  0
 21 22  1  0
 15 23  2  0
 23 24  1  0
  5 25  1  0
 25 26  1  0
 26 27  1  0
 27 28  1  0
 28 29  1  0
 29 30  1  0
 30 31  1  0
 31 32  1  0
 32 33  1  0
 33 34  2  0
 33 35  1  0
 35 36  1  0
 36 37  1  6
 36 38  1  0
 38 39  1  0
 39 40  1  0
 26  2  1  0
 40 29  1  0
 40  2  1  0
 24 12  2  0
 36 30  1  0
  1 41  1  0
  1 42  1  0
  1 43  1  0
  3 44  1  0
  3 45  1  0
  4 46  1  0
  4 47  1  0
  5 48  1  1
  9 49  1  0
  9 50  1  0
 10 51  1  0
 10 52  1  0
 11 53  1  0
 11 54  1  0
 13 55  1  0
 14 56  1  0
 17 57  1  0
 17 58  1  0
 18 59  1  0
 18 60  1  0
 20 61  1  0
 20 62  1  0
 21 63  1  0
 21 64  1  0
 23 65  1  0
 24 66  1  0
 25 67  1  0
 25 68  1  0
 26 69  1  1
 27 70  1  0
 27 71  1  0
 28 72  1  0
 28 73  1  0
 29 74  1  6
 30 75  1  1
 31 76  1  0
 31 77  1  0
 32 78  1  0
 32 79  1  0
 35 80  1  0
 37 81  1  0
 37 82  1  0
 37 83  1  0
 38 84  1  0
 38 85  1  0
 39 86  1  0
 39 87  1  0
 40 88  1  1
M  END
>  <meeko>  (2) 
{"is_sidechain": [false], "free_energy": -7.886, "intermolecular_energy": -12.508, "internal_energy": -3.298}

$$$$
SCHEMBL29564401_10008594_out
     RDKit          3D

 88 92  0  0  0  0  0  0  0  0999 V2000
   29.3710   74.0960   18.8280 C   0  0  0  0  0  0  0  0  0  0  0  0
   30.0060   72.9330   19.6350 C   0  0  2  0  0  0  0  0  0  0  0  0
   29.1400   72.6940   20.9060 C   0  0  0  0  0  0  0  0  0  0  0  0
   29.1870   73.8520   21.9050 C   0  0  0  0  0  0  0  0  0  0  0  0
   30.6130   74.2250   22.2960 C   0  0  2  0  0  0  0  0  0  0  0  0
   30.5710   75.3980   23.1030 O   0  0  0  0  0  0  0  0  0  0  0  0
   30.2850   76.5620   22.4430 C   0  0  0  0  0  0  0  0  0  0  0  0
   29.3710   76.7230   21.6450 O   0  0  0  0  0  0  0  0  0  0  0  0
   31.2890   77.6270   22.8200 C   0  0  0  0  0  0  0  0  0  0  0  0
   31.7740   78.4420   21.6190 C   0  0  0  0  0  0  0  0  0  0  0  0
   32.9150   77.7770   20.8340 C   0  0  0  0  0  0  0  0  0  0  0  0
   32.6220   77.5460   19.3740 C   0  0  0  0  0  0  0  0  0  0  0  0
   31.3020   77.4610   18.9320 C   0  0  0  0  0  0  0  0  0  0  0  0
   31.0320   77.2470   17.5800 C   0  0  0  0  0  0  0  0  0  0  0  0
   32.0820   77.1180   16.6710 C   0  0  0  0  0  0  0  0  0  0  0  0
   31.8080   76.9030   15.3040 N   0  0  0  0  0  0  0  0  0  0  0  0
   30.4680   77.0880   14.7860 C   0  0  0  0  0  0  0  0  0  0  0  0
   30.3130   78.4620   14.1530 C   0  0  0  0  0  0  0  0  0  0  0  0
   30.2870   78.3580   12.3740 Cl  0  0  0  0  0  0  0  0  0  0  0  0
   32.8610   76.4800   14.4030 C   0  0  0  0  0  0  0  0  0  0  0  0
   32.5040   75.1650   13.7250 C   0  0  0  0  0  0  0  0  0  0  0  0
   31.9250   73.9620   14.9040 Cl  0  0  0  0  0  0  0  0  0  0  0  0
   33.4010   77.2040   17.1130 C   0  0  0  0  0  0  0  0  0  0  0  0
   33.6720   77.4170   18.4650 C   0  0  0  0  0  0  0  0  0  0  0  0
   31.5000   74.4710   21.0770 C   0  0  0  0  0  0  0  0  0  0  0  0
   31.4520   73.2810   20.1110 C   0  0  2  0  0  0  0  0  0  0  0  0
   32.4130   73.4760   18.9340 C   0  0  0  0  0  0  0  0  0  0  0  0
   32.4890   72.2010   18.1000 C   0  0  0  0  0  0  0  0  0  0  0  0
   31.1100   71.7330   17.6020 C   0  0  1  0  0  0  0  0  0  0  0  0
   31.2050   70.4330   16.7430 C   0  0  1  0  0  0  0  0  0  0  0  0
   31.8880   69.2610   17.4710 C   0  0  0  0  0  0  0  0  0  0  0  0
   32.0630   68.0770   16.5370 C   0  0  0  0  0  0  0  0  0  0  0  0
   30.8030   67.6600   15.8230 C   0  0  0  0  0  0  0  0  0  0  0  0
   30.6710   66.5110   15.3980 O   0  0  0  0  0  0  0  0  0  0  0  0
   29.8750   68.6450   15.5890 N   0  0  0  0  0  0  0  0  0  0  0  0
   29.8120   69.9750   16.2230 C   0  0  2  0  0  0  0  0  0  0  0  0
   29.2920   70.9510   15.1470 C   0  0  0  0  0  0  0  0  0  0  0  0
   28.8030   69.8850   17.3890 C   0  0  0  0  0  0  0  0  0  0  0  0
   28.7140   71.1590   18.2270 C   0  0  0  0  0  0  0  0  0  0  0  0
   30.0840   71.6160   18.7650 C   0  0  2  0  0  0  0  0  0  0  0  0
   28.9624   74.8443   19.5230 H   0  0  0  0  0  0  0  0  0  0  0  0
   30.1385   74.5645   18.1944 H   0  0  0  0  0  0  0  0  0  0  0  0
   28.5619   73.7037   18.1944 H   0  0  0  0  0  0  0  0  0  0  0  0
   28.0958   72.5468   20.5929 H   0  0  0  0  0  0  0  0  0  0  0  0
   29.5519   71.8107   21.4160 H   0  0  0  0  0  0  0  0  0  0  0  0
   28.7041   74.7299   21.4511 H   0  0  0  0  0  0  0  0  0  0  0  0
   28.6626   73.5299   22.8167 H   0  0  0  0  0  0  0  0  0  0  0  0
   31.0502   73.3823   22.8516 H   0  0  0  0  0  0  0  0  0  0  0  0
   30.8197   78.3116   23.5419 H   0  0  0  0  0  0  0  0  0  0  0  0
   32.1650   77.1174   23.2478 H   0  0  0  0  0  0  0  0  0  0  0  0
   30.9247   78.5908   20.9359 H   0  0  0  0  0  0  0  0  0  0  0  0
   32.1691   79.3891   22.0150 H   0  0  0  0  0  0  0  0  0  0  0  0
   33.8032   78.4218   20.9077 H   0  0  0  0  0  0  0  0  0  0  0  0
   33.0638   76.7837   21.2826 H   0  0  0  0  0  0  0  0  0  0  0  0
   30.4740   77.5626   19.6490 H   0  0  0  0  0  0  0  0  0  0  0  0
   29.9910   77.1800   17.2309 H   0  0  0  0  0  0  0  0  0  0  0  0
   30.2662   76.3176   14.0272 H   0  0  0  0  0  0  0  0  0  0  0  0
   29.7554   77.0040   15.6197 H   0  0  0  0  0  0  0  0  0  0  0  0
   29.3706   78.9115   14.4992 H   0  0  0  0  0  0  0  0  0  0  0  0
   31.1726   79.0801   14.4515 H   0  0  0  0  0  0  0  0  0  0  0  0
   33.0083   77.2527   13.6341 H   0  0  0  0  0  0  0  0  0  0  0  0
   33.7828   76.3348   14.9854 H   0  0  0  0  0  0  0  0  0  0  0  0
   31.7130   75.3482   12.9828 H   0  0  0  0  0  0  0  0  0  0  0  0
   33.4088   74.7681   13.2414 H   0  0  0  0  0  0  0  0  0  0  0  0
   34.2288   77.1039   16.3956 H   0  0  0  0  0  0  0  0  0  0  0  0
   34.7131   77.4832   18.8138 H   0  0  0  0  0  0  0  0  0  0  0  0
   31.1497   75.3730   20.5538 H   0  0  0  0  0  0  0  0  0  0  0  0
   32.5370   74.6015   21.4198 H   0  0  0  0  0  0  0  0  0  0  0  0
   31.7960   72.4055   20.6812 H   0  0  0  0  0  0  0  0  0  0  0  0
   32.0524   74.3019   18.3033 H   0  0  0  0  0  0  0  0  0  0  0  0
   33.4147   73.7109   19.3232 H   0  0  0  0  0  0  0  0  0  0  0  0
   33.1327   72.3889   17.2280 H   0  0  0  0  0  0  0  0  0  0  0  0
   32.8964   71.4073   18.7435 H   0  0  0  0  0  0  0  0  0  0  0  0
   30.7260   72.5134   16.9286 H   0  0  0  0  0  0  0  0  0  0  0  0
   31.8405   70.7094   15.8888 H   0  0  0  0  0  0  0  0  0  0  0  0
   32.8754   69.5858   17.8309 H   0  0  0  0  0  0  0  0  0  0  0  0
   31.2553   68.9535   18.3167 H   0  0  0  0  0  0  0  0  0  0  0  0
   32.8159   68.3431   15.7805 H   0  0  0  0  0  0  0  0  0  0  0  0
   32.3683   67.2247   17.1619 H   0  0  0  0  0  0  0  0  0  0  0  0
   29.1440   68.4310   14.8940 H   0  0  0  0  0  0  0  0  0  0  0  0
   28.8284   71.8212   15.6346 H   0  0  0  0  0  0  0  0  0  0  0  0
   30.1311   71.2861   14.5196 H   0  0  0  0  0  0  0  0  0  0  0  0
   28.5458   70.4415   14.5196 H   0  0  0  0  0  0  0  0  0  0  0  0
   27.8076   69.6747   16.9708 H   0  0  0  0  0  0  0  0  0  0  0  0
   29.1562   69.0859   18.0574 H   0  0  0  0  0  0  0  0  0  0  0  0
   28.2958   71.9622   17.6024 H   0  0  0  0  0  0  0  0  0  0  0  0
   28.0732   70.9413   19.0941 H   0  0  0  0  0  0  0  0  0  0  0  0
   30.4377   70.8390   19.4586 H   0  0  0  0  0  0  0  0  0  0  0  0
  2  1  1  6
  2  3  1  0
  3  4  1  0
  4  5  1  0
  5  6  1  0
  6  7  1  0
  7  8  2  0
  7  9  1  0
  9 10  1  0
 10 11  1  0
 11 12  1  0
 12 13  1  0
 13 14  2  0
 14 15  1  0
 15 16  1  0
 16 17  1  0
 17 18  1  0
 18 19  1  0
 16 20  1  0
 20 21  1  0
 21 22  1  0
 15 23  2  0
 23 24  1  0
  5 25  1  0
 25 26  1  0
 26 27  1  0
 27 28  1  0
 28 29  1  0
 29 30  1  0
 30 31  1  0
 31 32  1  0
 32 33  1  0
 33 34  2  0
 33 35  1  0
 35 36  1  0
 36 37  1  6
 36 38  1  0
 38 39  1  0
 39 40  1  0
 26  2  1  0
 40 29  1  0
 40  2  1  0
 24 12  2  0
 36 30  1  0
  1 41  1  0
  1 42  1  0
  1 43  1  0
  3 44  1  0
  3 45  1  0
  4 46  1  0
  4 47  1  0
  5 48  1  1
  9 49  1  0
  9 50  1  0
 10 51  1  0
 10 52  1  0
 11 53  1  0
 11 54  1  0
 13 55  1  0
 14 56  1  0
 17 57  1  0
 17 58  1  0
 18 59  1  0
 18 60  1  0
 20 61  1  0
 20 62  1  0
 21 63  1  0
 21 64  1  0
 23 65  1  0
 24 66  1  0
 25 67  1  0
 25 68  1  0
 26 69  1  1
 27 70  1  0
 27 71  1  0
 28 72  1  0
 28 73  1  0
 29 74  1  6
 30 75  1  6
 31 76  1  0
 31 77  1  0
 32 78  1  0
 32 79  1  0
 35 80  1  0
 37 81  1  0
 37 82  1  0
 37 83  1  0
 38 84  1  0
 38 85  1  0
 39 86  1  0
 39 87  1  0
 40 88  1  1
M  END
>  <meeko>  (3) 
{"is_sidechain": [false], "free_energy": -7.709, "intermolecular_energy": -13.016, "internal_energy": -2.499}

$$$$
SCHEMBL29564401_10008594_out
     RDKit          3D

 88 92  0  0  0  0  0  0  0  0999 V2000
   31.2650   80.6170   17.7440 C   0  0  0  0  0  0  0  0  0  0  0  0
   30.8980   79.1280   17.5000 C   0  0  2  0  0  0  0  0  0  0  0  0
   29.4040   78.9260   17.8870 C   0  0  0  0  0  0  0  0  0  0  0  0
   29.1330   79.0910   19.3840 C   0  0  0  0  0  0  0  0  0  0  0  0
   30.0290   78.2000   20.2390 C   0  0  2  0  0  0  0  0  0  0  0  0
   29.8170   78.5240   21.6090 O   0  0  0  0  0  0  0  0  0  0  0  0
   30.2660   77.6000   22.5130 C   0  0  0  0  0  0  0  0  0  0  0  0
   30.9530   77.8390   23.4970 O   0  0  0  0  0  0  0  0  0  0  0  0
   29.8140   76.2170   22.1020 C   0  0  0  0  0  0  0  0  0  0  0  0
   30.7700   75.1140   22.5620 C   0  0  0  0  0  0  0  0  0  0  0  0
   32.1750   75.2130   21.9510 C   0  0  0  0  0  0  0  0  0  0  0  0
   32.3250   74.5480   20.6070 C   0  0  0  0  0  0  0  0  0  0  0  0
   31.4760   73.5020   20.2480 C   0  0  0  0  0  0  0  0  0  0  0  0
   31.6160   72.8860   19.0040 C   0  0  0  0  0  0  0  0  0  0  0  0
   32.6040   73.3190   18.1190 C   0  0  0  0  0  0  0  0  0  0  0  0
   32.7440   72.6970   16.8610 N   0  0  0  0  0  0  0  0  0  0  0  0
   32.4870   73.4380   15.6430 C   0  0  0  0  0  0  0  0  0  0  0  0
   31.0050   73.7420   15.4910 C   0  0  0  0  0  0  0  0  0  0  0  0
   30.5680   75.2690   16.2980 Cl  0  0  0  0  0  0  0  0  0  0  0  0
   33.1330   71.3040   16.7700 C   0  0  0  0  0  0  0  0  0  0  0  0
   32.1750   70.5260   15.8800 C   0  0  0  0  0  0  0  0  0  0  0  0
   30.5880   70.3150   16.6600 Cl  0  0  0  0  0  0  0  0  0  0  0  0
   33.4510   74.3650   18.4780 C   0  0  0  0  0  0  0  0  0  0  0  0
   33.3130   74.9810   19.7220 C   0  0  0  0  0  0  0  0  0  0  0  0
   31.5080   78.3690   19.8930 C   0  0  0  0  0  0  0  0  0  0  0  0
   31.7490   78.1700   18.3920 C   0  0  2  0  0  0  0  0  0  0  0  0
   33.2410   78.2400   18.0510 C   0  0  0  0  0  0  0  0  0  0  0  0
   33.4660   77.8470   16.5940 C   0  0  0  0  0  0  0  0  0  0  0  0
   32.6450   78.7030   15.6130 C   0  0  1  0  0  0  0  0  0  0  0  0
   32.8930   78.2960   14.1270 C   0  0  1  0  0  0  0  0  0  0  0  0
   32.6090   76.8090   13.8390 C   0  0  0  0  0  0  0  0  0  0  0  0
   32.9950   76.4550   12.4140 C   0  0  0  0  0  0  0  0  0  0  0  0
   32.4100   77.3690   11.3690 C   0  0  0  0  0  0  0  0  0  0  0  0
   32.2620   76.9860   10.2080 O   0  0  0  0  0  0  0  0  0  0  0  0
   32.1530   78.6620   11.7570 N   0  0  0  0  0  0  0  0  0  0  0  0
   32.0780   79.1770   13.1370 C   0  0  2  0  0  0  0  0  0  0  0  0
   32.6450   80.6110   13.1020 C   0  0  0  0  0  0  0  0  0  0  0  0
   30.5880   79.2040   13.5410 C   0  0  0  0  0  0  0  0  0  0  0  0
   30.3500   79.6030   14.9950 C   0  0  0  0  0  0  0  0  0  0  0  0
   31.1360   78.7280   15.9910 C   0  0  2  0  0  0  0  0  0  0  0  0
   31.3127   80.8104   18.8258 H   0  0  0  0  0  0  0  0  0  0  0  0
   32.2432   80.8328   17.2895 H   0  0  0  0  0  0  0  0  0  0  0  0
   30.4991   81.2626   17.2895 H   0  0  0  0  0  0  0  0  0  0  0  0
   28.7998   79.6651   17.3404 H   0  0  0  0  0  0  0  0  0  0  0  0
   29.1384   77.8919   17.6224 H   0  0  0  0  0  0  0  0  0  0  0  0
   29.3104   80.1405   19.6615 H   0  0  0  0  0  0  0  0  0  0  0  0
   28.0900   78.7954   19.5706 H   0  0  0  0  0  0  0  0  0  0  0  0
   29.7656   77.1508   20.0393 H   0  0  0  0  0  0  0  0  0  0  0  0
   28.8231   76.0274   22.5404 H   0  0  0  0  0  0  0  0  0  0  0  0
   29.7881   76.1925   21.0026 H   0  0  0  0  0  0  0  0  0  0  0  0
   30.8636   75.1712   23.6565 H   0  0  0  0  0  0  0  0  0  0  0  0
   30.3416   74.1590   22.2238 H   0  0  0  0  0  0  0  0  0  0  0  0
   32.4245   76.2782   21.8361 H   0  0  0  0  0  0  0  0  0  0  0  0
   32.8507   74.6821   22.6377 H   0  0  0  0  0  0  0  0  0  0  0  0
   30.6960   73.1625   20.9454 H   0  0  0  0  0  0  0  0  0  0  0  0
   30.9478   72.0593   18.7210 H   0  0  0  0  0  0  0  0  0  0  0  0
   33.0468   74.3844   15.6731 H   0  0  0  0  0  0  0  0  0  0  0  0
   32.8083   72.8264   14.7870 H   0  0  0  0  0  0  0  0  0  0  0  0
   30.7639   73.8212   14.4207 H   0  0  0  0  0  0  0  0  0  0  0  0
   30.4347   72.9270   15.9605 H   0  0  0  0  0  0  0  0  0  0  0  0
   34.1470   71.2407   16.3484 H   0  0  0  0  0  0  0  0  0  0  0  0
   33.1065   70.8667   17.7790 H   0  0  0  0  0  0  0  0  0  0  0  0
   32.0395   71.0736   14.9356 H   0  0  0  0  0  0  0  0  0  0  0  0
   32.6051   69.5304   15.6962 H   0  0  0  0  0  0  0  0  0  0  0  0
   34.2296   74.7057   17.7797 H   0  0  0  0  0  0  0  0  0  0  0  0
   33.9822   75.8070   20.0048 H   0  0  0  0  0  0  0  0  0  0  0  0
   31.8303   79.3815   20.1776 H   0  0  0  0  0  0  0  0  0  0  0  0
   32.0848   77.6111   20.4434 H   0  0  0  0  0  0  0  0  0  0  0  0
   31.3995   77.1546   18.1538 H   0  0  0  0  0  0  0  0  0  0  0  0
   33.6027   79.2665   18.2108 H   0  0  0  0  0  0  0  0  0  0  0  0
   33.7913   77.5433   18.7004 H   0  0  0  0  0  0  0  0  0  0  0  0
   34.5335   77.9680   16.3579 H   0  0  0  0  0  0  0  0  0  0  0  0
   33.1387   76.8033   16.4776 H   0  0  0  0  0  0  0  0  0  0  0  0
   33.0040   79.7386   15.7060 H   0  0  0  0  0  0  0  0  0  0  0  0
   33.9678   78.4669   13.9671 H   0  0  0  0  0  0  0  0  0  0  0  0
   33.1918   76.1886   14.5357 H   0  0  0  0  0  0  0  0  0  0  0  0
   31.5329   76.6226   13.9705 H   0  0  0  0  0  0  0  0  0  0  0  0
   34.0913   76.4964   12.3334 H   0  0  0  0  0  0  0  0  0  0  0  0
   32.5900   75.4513   12.2176 H   0  0  0  0  0  0  0  0  0  0  0  0
   31.9980   79.3460   11.0020 H   0  0  0  0  0  0  0  0  0  0  0  0
   32.7884   80.9738   14.1305 H   0  0  0  0  0  0  0  0  0  0  0  0
   33.6107   80.6107   12.5753 H   0  0  0  0  0  0  0  0  0  0  0  0
   31.9402   81.2712   12.5753 H   0  0  0  0  0  0  0  0  0  0  0  0
   30.0664   79.9247   12.8940 H   0  0  0  0  0  0  0  0  0  0  0  0
   30.2062   78.1791   13.4239 H   0  0  0  0  0  0  0  0  0  0  0  0
   30.6593   80.6503   15.1272 H   0  0  0  0  0  0  0  0  0  0  0  0
   29.2793   79.4640   15.2055 H   0  0  0  0  0  0  0  0  0  0  0  0
   30.7427   77.7042   15.9066 H   0  0  0  0  0  0  0  0  0  0  0  0
  2  1  1  6
  2  3  1  0
  3  4  1  0
  4  5  1  0
  5  6  1  0
  6  7  1  0
  7  8  2  0
  7  9  1  0
  9 10  1  0
 10 11  1  0
 11 12  1  0
 12 13  1  0
 13 14  2  0
 14 15  1  0
 15 16  1  0
 16 17  1  0
 17 18  1  0
 18 19  1  0
 16 20  1  0
 20 21  1  0
 21 22  1  0
 15 23  2  0
 23 24  1  0
  5 25  1  0
 25 26  1  0
 26 27  1  0
 27 28  1  0
 28 29  1  0
 29 30  1  0
 30 31  1  0
 31 32  1  0
 32 33  1  0
 33 34  2  0
 33 35  1  0
 35 36  1  0
 36 37  1  6
 36 38  1  0
 38 39  1  0
 39 40  1  0
 26  2  1  0
 40 29  1  0
 40  2  1  0
 24 12  2  0
 36 30  1  0
  1 41  1  0
  1 42  1  0
  1 43  1  0
  3 44  1  0
  3 45  1  0
  4 46  1  0
  4 47  1  0
  5 48  1  1
  9 49  1  0
  9 50  1  0
 10 51  1  0
 10 52  1  0
 11 53  1  0
 11 54  1  0
 13 55  1  0
 14 56  1  0
 17 57  1  0
 17 58  1  0
 18 59  1  0
 18 60  1  0
 20 61  1  0
 20 62  1  0
 21 63  1  0
 21 64  1  0
 23 65  1  0
 24 66  1  0
 25 67  1  0
 25 68  1  0
 26 69  1  6
 27 70  1  0
 27 71  1  0
 28 72  1  0
 28 73  1  0
 29 74  1  6
 30 75  1  6
 31 76  1  0
 31 77  1  0
 32 78  1  0
 32 79  1  0
 35 80  1  0
 37 81  1  0
 37 82  1  0
 37 83  1  0
 38 84  1  0
 38 85  1  0
 39 86  1  0
 39 87  1  0
 40 88  1  1
M  END
>  <meeko>  (4) 
{"is_sidechain": [false], "free_energy": -7.492, "intermolecular_energy": -11.918, "internal_energy": -3.242}

$$$$
SCHEMBL29564401_10008594_out
     RDKit          3D

 88 92  0  0  0  0  0  0  0  0999 V2000
   30.4060   74.9170   19.1850 C   0  0  0  0  0  0  0  0  0  0  0  0
   31.2240   73.8750   19.9930 C   0  0  2  0  0  0  0  0  0  0  0  0
   30.6550   73.8250   21.4400 C   0  0  0  0  0  0  0  0  0  0  0  0
   30.8880   75.1130   22.2330 C   0  0  0  0  0  0  0  0  0  0  0  0
   32.3560   75.5250   22.2540 C   0  0  2  0  0  0  0  0  0  0  0  0
   32.4610   76.8000   22.8780 O   0  0  0  0  0  0  0  0  0  0  0  0
   32.5620   77.8700   22.0310 C   0  0  0  0  0  0  0  0  0  0  0  0
   33.5710   78.2120   21.4300 O   0  0  0  0  0  0  0  0  0  0  0  0
   31.2390   78.5990   21.9640 C   0  0  0  0  0  0  0  0  0  0  0  0
   30.4790   78.3420   20.6610 C   0  0  0  0  0  0  0  0  0  0  0  0
   30.9360   79.2230   19.4890 C   0  0  0  0  0  0  0  0  0  0  0  0
   31.1190   78.4900   18.1860 C   0  0  0  0  0  0  0  0  0  0  0  0
   32.3530   77.9220   17.8720 C   0  0  0  0  0  0  0  0  0  0  0  0
   32.5220   77.2440   16.6640 C   0  0  0  0  0  0  0  0  0  0  0  0
   31.4560   77.1330   15.7720 C   0  0  0  0  0  0  0  0  0  0  0  0
   31.6270   76.4460   14.5510 N   0  0  0  0  0  0  0  0  0  0  0  0
   31.0170   75.1480   14.3490 C   0  0  0  0  0  0  0  0  0  0  0  0
   31.9750   74.0300   14.7300 C   0  0  0  0  0  0  0  0  0  0  0  0
   33.6620   74.6010   14.7590 Cl  0  0  0  0  0  0  0  0  0  0  0  0
   32.4250   77.0250   13.4890 C   0  0  0  0  0  0  0  0  0  0  0  0
   31.6110   77.1720   12.2130 C   0  0  0  0  0  0  0  0  0  0  0  0
   30.2880   78.3460   12.4170 Cl  0  0  0  0  0  0  0  0  0  0  0  0
   30.2220   77.7010   16.0860 C   0  0  0  0  0  0  0  0  0  0  0  0
   30.0530   78.3790   17.2930 C   0  0  0  0  0  0  0  0  0  0  0  0
   32.9570   75.5890   20.8500 C   0  0  0  0  0  0  0  0  0  0  0  0
   32.7300   74.2750   20.0930 C   0  0  2  0  0  0  0  0  0  0  0  0
   33.4130   74.2940   18.7220 C   0  0  0  0  0  0  0  0  0  0  0  0
   33.3380   72.9130   18.0780 C   0  0  0  0  0  0  0  0  0  0  0  0
   31.8950   72.3910   17.9580 C   0  0  1  0  0  0  0  0  0  0  0  0
   31.8330   70.9820   17.2890 C   0  0  1  0  0  0  0  0  0  0  0  0
   32.6830   69.9180   18.0110 C   0  0  0  0  0  0  0  0  0  0  0  0
   32.6800   68.6130   17.2350 C   0  0  0  0  0  0  0  0  0  0  0  0
   31.3070   68.1090   16.8740 C   0  0  0  0  0  0  0  0  0  0  0  0
   31.1120   66.9140   16.6520 O   0  0  0  0  0  0  0  0  0  0  0  0
   30.3280   69.0590   16.7090 N   0  0  0  0  0  0  0  0  0  0  0  0
   30.3720   70.4660   17.1490 C   0  0  2  0  0  0  0  0  0  0  0  0
   29.6130   71.2840   16.0840 C   0  0  0  0  0  0  0  0  0  0  0  0
   29.6380   70.5500   18.5060 C   0  0  0  0  0  0  0  0  0  0  0  0
   29.7010   71.9300   19.1560 C   0  0  0  0  0  0  0  0  0  0  0  0
   31.1440   72.4480   19.3190 C   0  0  2  0  0  0  0  0  0  0  0  0
   29.8792   75.5880   19.8795 H   0  0  0  0  0  0  0  0  0  0  0  0
   31.0859   75.5054   18.5514 H   0  0  0  0  0  0  0  0  0  0  0  0
   29.6730   74.3962   18.5514 H   0  0  0  0  0  0  0  0  0  0  0  0
   29.5717   73.6431   21.3819 H   0  0  0  0  0  0  0  0  0  0  0  0
   31.1858   73.0194   21.9685 H   0  0  0  0  0  0  0  0  0  0  0  0
   30.3006   75.9218   21.7738 H   0  0  0  0  0  0  0  0  0  0  0  0
   30.5765   74.9284   23.2717 H   0  0  0  0  0  0  0  0  0  0  0  0
   32.9199   74.7658   22.8158 H   0  0  0  0  0  0  0  0  0  0  0  0
   30.6133   78.2675   22.8058 H   0  0  0  0  0  0  0  0  0  0  0  0
   31.4548   79.6766   22.0115 H   0  0  0  0  0  0  0  0  0  0  0  0
   30.6223   77.2886   20.3786 H   0  0  0  0  0  0  0  0  0  0  0  0
   29.4243   78.5885   20.8530 H   0  0  0  0  0  0  0  0  0  0  0  0
   30.1821   80.0095   19.3370 H   0  0  0  0  0  0  0  0  0  0  0  0
   31.9245   79.6193   19.7646 H   0  0  0  0  0  0  0  0  0  0  0  0
   33.1934   78.0083   18.5765 H   0  0  0  0  0  0  0  0  0  0  0  0
   33.4960   76.7972   16.4155 H   0  0  0  0  0  0  0  0  0  0  0  0
   30.1130   75.0747   14.9714 H   0  0  0  0  0  0  0  0  0  0  0  0
   30.7616   75.0428   13.2842 H   0  0  0  0  0  0  0  0  0  0  0  0
   31.7072   73.6541   15.7285 H   0  0  0  0  0  0  0  0  0  0  0  0
   31.8926   73.2321   13.9773 H   0  0  0  0  0  0  0  0  0  0  0  0
   32.7796   78.0170   13.8056 H   0  0  0  0  0  0  0  0  0  0  0  0
   33.2758   76.3577   13.2867 H   0  0  0  0  0  0  0  0  0  0  0  0
   32.2726   77.5156   11.4042 H   0  0  0  0  0  0  0  0  0  0  0  0
   31.1709   76.1939   11.9689 H   0  0  0  0  0  0  0  0  0  0  0  0
   29.3816   77.6143   15.3816 H   0  0  0  0  0  0  0  0  0  0  0  0
   29.0791   78.8263   17.5409 H   0  0  0  0  0  0  0  0  0  0  0  0
   32.4832   76.4110   20.2933 H   0  0  0  0  0  0  0  0  0  0  0  0
   34.0402   75.7579   20.9405 H   0  0  0  0  0  0  0  0  0  0  0  0
   33.2072   73.4855   20.6922 H   0  0  0  0  0  0  0  0  0  0  0  0
   32.9075   75.0252   18.0741 H   0  0  0  0  0  0  0  0  0  0  0  0
   34.4690   74.5737   18.8505 H   0  0  0  0  0  0  0  0  0  0  0  0
   33.7764   72.9702   17.0708 H   0  0  0  0  0  0  0  0  0  0  0  0
   33.8912   72.2149   18.7235 H   0  0  0  0  0  0  0  0  0  0  0  0
   31.3588   73.0718   17.2805 H   0  0  0  0  0  0  0  0  0  0  0  0
   32.2645   71.1300   16.2881 H   0  0  0  0  0  0  0  0  0  0  0  0
   33.7170   70.2821   18.1015 H   0  0  0  0  0  0  0  0  0  0  0  0
   32.2536   69.7383   19.0076 H   0  0  0  0  0  0  0  0  0  0  0  0
   33.2470   68.7642   16.3046 H   0  0  0  0  0  0  0  0  0  0  0  0
   33.1309   67.8549   17.8923 H   0  0  0  0  0  0  0  0  0  0  0  0
   29.4710   68.7550   16.2240 H   0  0  0  0  0  0  0  0  0  0  0  0
   28.9456   72.0033   16.5811 H   0  0  0  0  0  0  0  0  0  0  0  0
   30.3345   71.8269   15.4557 H   0  0  0  0  0  0  0  0  0  0  0  0
   29.0177   70.6051   15.4557 H   0  0  0  0  0  0  0  0  0  0  0  0
   28.5813   70.2902   18.3454 H   0  0  0  0  0  0  0  0  0  0  0  0
   30.1444   69.8511   19.1880 H   0  0  0  0  0  0  0  0  0  0  0  0
   29.1415   72.6398   18.5290 H   0  0  0  0  0  0  0  0  0  0  0  0
   29.2647   71.8426   20.1620 H   0  0  0  0  0  0  0  0  0  0  0  0
   31.6551   71.7744   20.0227 H   0  0  0  0  0  0  0  0  0  0  0  0
  2  1  1  6
  2  3  1  0
  3  4  1  0
  4  5  1  0
  5  6  1  0
  6  7  1  0
  7  8  2  0
  7  9  1  0
  9 10  1  0
 10 11  1  0
 11 12  1  0
 12 13  1  0
 13 14  2  0
 14 15  1  0
 15 16  1  0
 16 17  1  0
 17 18  1  0
 18 19  1  0
 16 20  1  0
 20 21  1  0
 21 22  1  0
 15 23  2  0
 23 24  1  0
  5 25  1  0
 25 26  1  0
 26 27  1  0
 27 28  1  0
 28 29  1  0
 29 30  1  0
 30 31  1  0
 31 32  1  0
 32 33  1  0
 33 34  2  0
 33 35  1  0
 35 36  1  0
 36 37  1  6
 36 38  1  0
 38 39  1  0
 39 40  1  0
 26  2  1  0
 40 29  1  0
 40  2  1  0
 24 12  2  0
 36 30  1  0
  1 41  1  0
  1 42  1  0
  1 43  1  0
  3 44  1  0
  3 45  1  0
  4 46  1  0
  4 47  1  0
  5 48  1  1
  9 49  1  0
  9 50  1  0
 10 51  1  0
 10 52  1  0
 11 53  1  0
 11 54  1  0
 13 55  1  0
 14 56  1  0
 17 57  1  0
 17 58  1  0
 18 59  1  0
 18 60  1  0
 20 61  1  0
 20 62  1  0
 21 63  1  0
 21 64  1  0
 23 65  1  0
 24 66  1  0
 25 67  1  0
 25 68  1  0
 26 69  1  1
 27 70  1  0
 27 71  1  0
 28 72  1  0
 28 73  1  0
 29 74  1  6
 30 75  1  6
 31 76  1  0
 31 77  1  0
 32 78  1  0
 32 79  1  0
 35 80  1  0
 37 81  1  0
 37 82  1  0
 37 83  1  0
 38 84  1  0
 38 85  1  0
 39 86  1  0
 39 87  1  0
 40 88  1  1
M  END
>  <meeko>  (5) 
{"is_sidechain": [false], "free_energy": -7.364, "intermolecular_energy": -12.623, "internal_energy": -2.325}

$$$$
SCHEMBL29564401_10008594_out
     RDKit          3D

 88 92  0  0  0  0  0  0  0  0999 V2000
   30.4760   73.6210   21.5380 C   0  0  0  0  0  0  0  0  0  0  0  0
   29.8830   73.8140   20.1170 C   0  0  2  0  0  0  0  0  0  0  0  0
   28.5500   73.0160   20.0340 C   0  0  0  0  0  0  0  0  0  0  0  0
   28.7390   71.5000   20.1080 C   0  0  0  0  0  0  0  0  0  0  0  0
   29.7310   70.9870   19.0690 C   0  0  2  0  0  0  0  0  0  0  0  0
   29.9610   69.6020   19.3050 O   0  0  0  0  0  0  0  0  0  0  0  0
   30.0710   68.8200   18.1870 C   0  0  0  0  0  0  0  0  0  0  0  0
   30.6620   67.7510   18.1180 O   0  0  0  0  0  0  0  0  0  0  0  0
   29.3750   69.4880   17.0220 C   0  0  0  0  0  0  0  0  0  0  0  0
   30.2650   69.6050   15.7820 C   0  0  0  0  0  0  0  0  0  0  0  0
   31.6700   70.1520   16.0730 C   0  0  0  0  0  0  0  0  0  0  0  0
   31.9010   71.5690   15.6140 C   0  0  0  0  0  0  0  0  0  0  0  0
   33.2010   72.0530   15.4710 C   0  0  0  0  0  0  0  0  0  0  0  0
   33.4140   73.3640   15.0470 C   0  0  0  0  0  0  0  0  0  0  0  0
   32.3260   74.1910   14.7640 C   0  0  0  0  0  0  0  0  0  0  0  0
   32.5420   75.5170   14.3330 N   0  0  0  0  0  0  0  0  0  0  0  0
   31.4490   76.4670   14.3070 C   0  0  0  0  0  0  0  0  0  0  0  0
   31.1990   76.9740   12.8960 C   0  0  0  0  0  0  0  0  0  0  0  0
   30.2740   78.4960   12.9050 Cl  0  0  0  0  0  0  0  0  0  0  0  0
   33.8580   75.9420   13.8980 C   0  0  0  0  0  0  0  0  0  0  0  0
   34.3700   77.0910   14.7530 C   0  0  0  0  0  0  0  0  0  0  0  0
   34.4600   76.6330   16.4720 Cl  0  0  0  0  0  0  0  0  0  0  0  0
   31.0270   73.7060   14.9060 C   0  0  0  0  0  0  0  0  0  0  0  0
   30.8140   72.3950   15.3310 C   0  0  0  0  0  0  0  0  0  0  0  0
   31.0580   71.7430   19.1170 C   0  0  0  0  0  0  0  0  0  0  0  0
   30.8350   73.2560   19.0120 C   0  0  2  0  0  0  0  0  0  0  0  0
   32.1640   74.0160   18.9610 C   0  0  0  0  0  0  0  0  0  0  0  0
   31.9150   75.4910   18.6620 C   0  0  0  0  0  0  0  0  0  0  0  0
   30.9530   76.1480   19.6690 C   0  0  1  0  0  0  0  0  0  0  0  0
   30.7160   77.6590   19.3570 C   0  0  1  0  0  0  0  0  0  0  0  0
   30.1890   77.9190   17.9320 C   0  0  0  0  0  0  0  0  0  0  0  0
   30.1060   79.4090   17.6540 C   0  0  0  0  0  0  0  0  0  0  0  0
   29.3580   80.1940   18.7010 C   0  0  0  0  0  0  0  0  0  0  0  0
   28.8400   81.2760   18.4250 O   0  0  0  0  0  0  0  0  0  0  0  0
   29.3770   79.6890   19.9780 N   0  0  0  0  0  0  0  0  0  0  0  0
   29.7620   78.3250   20.3890 C   0  0  2  0  0  0  0  0  0  0  0  0
   30.4590   78.4580   21.7580 C   0  0  0  0  0  0  0  0  0  0  0  0
   28.4630   77.5010   20.5330 C   0  0  0  0  0  0  0  0  0  0  0  0
   28.7000   76.0240   20.8380 C   0  0  0  0  0  0  0  0  0  0  0  0
   29.6300   75.3440   19.8140 C   0  0  2  0  0  0  0  0  0  0  0  0
   29.7131   73.8693   22.2905 H   0  0  0  0  0  0  0  0  0  0  0  0
   30.7897   72.5744   21.6654 H   0  0  0  0  0  0  0  0  0  0  0  0
   31.3456   74.2825   21.6654 H   0  0  0  0  0  0  0  0  0  0  0  0
   27.9055   73.3274   20.8693 H   0  0  0  0  0  0  0  0  0  0  0  0
   28.1013   73.2380   19.0545 H   0  0  0  0  0  0  0  0  0  0  0  0
   29.1099   71.2386   21.1100 H   0  0  0  0  0  0  0  0  0  0  0  0
   27.7657   71.0300   19.9036 H   0  0  0  0  0  0  0  0  0  0  0  0
   29.2992   71.1482   18.0702 H   0  0  0  0  0  0  0  0  0  0  0  0
   28.4846   68.8976   16.7601 H   0  0  0  0  0  0  0  0  0  0  0  0
   29.1124   70.5088   17.3365 H   0  0  0  0  0  0  0  0  0  0  0  0
   30.3684   68.6055   15.3345 H   0  0  0  0  0  0  0  0  0  0  0  0
   29.7771   70.3224   15.1058 H   0  0  0  0  0  0  0  0  0  0  0  0
   31.8349   70.1126   17.1599 H   0  0  0  0  0  0  0  0  0  0  0  0
   32.3722   69.5231   15.5061 H   0  0  0  0  0  0  0  0  0  0  0  0
   34.0583   71.4005   15.6927 H   0  0  0  0  0  0  0  0  0  0  0  0
   34.4393   73.7464   14.9356 H   0  0  0  0  0  0  0  0  0  0  0  0
   30.5376   75.9765   14.6794 H   0  0  0  0  0  0  0  0  0  0  0  0
   31.7147   77.3233   14.9443 H   0  0  0  0  0  0  0  0  0  0  0  0
   32.1662   77.1462   12.4012 H   0  0  0  0  0  0  0  0  0  0  0  0
   30.6127   76.2164   12.3554 H   0  0  0  0  0  0  0  0  0  0  0  0
   34.5548   75.0947   13.9794 H   0  0  0  0  0  0  0  0  0  0  0  0
   33.7886   76.2850   12.8552 H   0  0  0  0  0  0  0  0  0  0  0  0
   35.3741   77.3757   14.4056 H   0  0  0  0  0  0  0  0  0  0  0  0
   33.6695   77.9335   14.6557 H   0  0  0  0  0  0  0  0  0  0  0  0
   30.1694   74.3577   14.6827 H   0  0  0  0  0  0  0  0  0  0  0  0
   29.7887   72.0127   15.4429 H   0  0  0  0  0  0  0  0  0  0  0  0
   31.5646   71.5196   20.0675 H   0  0  0  0  0  0  0  0  0  0  0  0
   31.6749   71.4207   18.2652 H   0  0  0  0  0  0  0  0  0  0  0  0
   30.3164   73.4276   18.0572 H   0  0  0  0  0  0  0  0  0  0  0  0
   32.6736   73.9227   19.9314 H   0  0  0  0  0  0  0  0  0  0  0  0
   32.7919   73.5890   18.1651 H   0  0  0  0  0  0  0  0  0  0  0  0
   32.8767   76.0239   18.6951 H   0  0  0  0  0  0  0  0  0  0  0  0
   31.4487   75.5540   17.6677 H   0  0  0  0  0  0  0  0  0  0  0  0
   31.4423   76.1166   20.6537 H   0  0  0  0  0  0  0  0  0  0  0  0
   31.7123   78.1191   19.4327 H   0  0  0  0  0  0  0  0  0  0  0  0
   30.8702   77.4534   17.2046 H   0  0  0  0  0  0  0  0  0  0  0  0
   29.1817   77.4861   17.8431 H   0  0  0  0  0  0  0  0  0  0  0  0
   31.1302   79.8056   17.5922 H   0  0  0  0  0  0  0  0  0  0  0  0
   29.5461   79.5236   16.7141 H   0  0  0  0  0  0  0  0  0  0  0  0
   29.0940   80.3330   20.7310 H   0  0  0  0  0  0  0  0  0  0  0  0
   29.7203   78.3170   22.5608 H   0  0  0  0  0  0  0  0  0  0  0  0
   31.2453   77.6937   21.8449 H   0  0  0  0  0  0  0  0  0  0  0  0
   30.9086   79.4581   21.8449 H   0  0  0  0  0  0  0  0  0  0  0  0
   27.8675   77.9327   21.3510 H   0  0  0  0  0  0  0  0  0  0  0  0
   27.9447   77.5485   19.5639 H   0  0  0  0  0  0  0  0  0  0  0  0
   29.1549   75.9399   21.8360 H   0  0  0  0  0  0  0  0  0  0  0  0
   27.7258   75.5155   20.7892 H   0  0  0  0  0  0  0  0  0  0  0  0
   29.1116   75.3568   18.8439 H   0  0  0  0  0  0  0  0  0  0  0  0
  2  1  1  1
  2  3  1  0
  3  4  1  0
  4  5  1  0
  5  6  1  0
  6  7  1  0
  7  8  2  0
  7  9  1  0
  9 10  1  0
 10 11  1  0
 11 12  1  0
 12 13  1  0
 13 14  2  0
 14 15  1  0
 15 16  1  0
 16 17  1  0
 17 18  1  0
 18 19  1  0
 16 20  1  0
 20 21  1  0
 21 22  1  0
 15 23  2  0
 23 24  1  0
  5 25  1  0
 25 26  1  0
 26 27  1  0
 27 28  1  0
 28 29  1  0
 29 30  1  0
 30 31  1  0
 31 32  1  0
 32 33  1  0
 33 34  2  0
 33 35  1  0
 35 36  1  0
 36 37  1  1
 36 38  1  0
 38 39  1  0
 39 40  1  0
 26  2  1  0
 40 29  1  0
 40  2  1  0
 24 12  2  0
 36 30  1  0
  1 41  1  0
  1 42  1  0
  1 43  1  0
  3 44  1  0
  3 45  1  0
  4 46  1  0
  4 47  1  0
  5 48  1  6
  9 49  1  0
  9 50  1  0
 10 51  1  0
 10 52  1  0
 11 53  1  0
 11 54  1  0
 13 55  1  0
 14 56  1  0
 17 57  1  0
 17 58  1  0
 18 59  1  0
 18 60  1  0
 20 61  1  0
 20 62  1  0
 21 63  1  0
 21 64  1  0
 23 65  1  0
 24 66  1  0
 25 67  1  0
 25 68  1  0
 26 69  1  6
 27 70  1  0
 27 71  1  0
 28 72  1  0
 28 73  1  0
 29 74  1  1
 30 75  1  6
 31 76  1  0
 31 77  1  0
 32 78  1  0
 32 79  1  0
 35 80  1  0
 37 81  1  0
 37 82  1  0
 37 83  1  0
 38 84  1  0
 38 85  1  0
 39 86  1  0
 39 87  1  0
 40 88  1  6
M  END
>  <meeko>  (6) 
{"is_sidechain": [false], "free_energy": -7.333, "intermolecular_energy": -11.843, "internal_energy": -3.055}

$$$$
SCHEMBL29564401_10008594_out
     RDKit          3D

 88 92  0  0  0  0  0  0  0  0999 V2000
   33.1500   74.3980   16.6920 C   0  0  0  0  0  0  0  0  0  0  0  0
   32.1140   74.0390   15.5940 C   0  0  2  0  0  0  0  0  0  0  0  0
   32.6610   74.5400   14.2260 C   0  0  0  0  0  0  0  0  0  0  0  0
   32.7380   76.0640   14.1190 C   0  0  0  0  0  0  0  0  0  0  0  0
   31.4070   76.7370   14.4370 C   0  0  2  0  0  0  0  0  0  0  0  0
   31.6040   78.1470   14.4620 O   0  0  0  0  0  0  0  0  0  0  0  0
   30.5460   78.9010   14.0330 C   0  0  0  0  0  0  0  0  0  0  0  0
   29.7840   78.6090   13.1220 O   0  0  0  0  0  0  0  0  0  0  0  0
   30.4700   80.1810   14.8350 C   0  0  0  0  0  0  0  0  0  0  0  0
   31.4990   80.2400   15.9660 C   0  0  0  0  0  0  0  0  0  0  0  0
   30.8780   80.2970   17.3700 C   0  0  0  0  0  0  0  0  0  0  0  0
   31.0400   79.0360   18.1800 C   0  0  0  0  0  0  0  0  0  0  0  0
   32.3090   78.4960   18.3850 C   0  0  0  0  0  0  0  0  0  0  0  0
   32.4580   77.3290   19.1340 C   0  0  0  0  0  0  0  0  0  0  0  0
   31.3370   76.7030   19.6790 C   0  0  0  0  0  0  0  0  0  0  0  0
   31.4880   75.5240   20.4380 N   0  0  0  0  0  0  0  0  0  0  0  0
   30.3340   74.7130   20.7710 C   0  0  0  0  0  0  0  0  0  0  0  0
   30.6720   73.2320   20.7090 C   0  0  0  0  0  0  0  0  0  0  0  0
   29.2010   72.2340   20.5880 Cl  0  0  0  0  0  0  0  0  0  0  0  0
   32.7970   75.1150   20.9050 C   0  0  0  0  0  0  0  0  0  0  0  0
   32.9780   75.4450   22.3790 C   0  0  0  0  0  0  0  0  0  0  0  0
   33.3030   77.1790   22.6220 Cl  0  0  0  0  0  0  0  0  0  0  0  0
   30.0680   77.2440   19.4750 C   0  0  0  0  0  0  0  0  0  0  0  0
   29.9190   78.4100   18.7250 C   0  0  0  0  0  0  0  0  0  0  0  0
   30.8330   76.2750   15.7760 C   0  0  0  0  0  0  0  0  0  0  0  0
   30.7430   74.7450   15.8390 C   0  0  2  0  0  0  0  0  0  0  0  0
   30.0790   74.2770   17.1380 C   0  0  0  0  0  0  0  0  0  0  0  0
   29.8270   72.7730   17.0860 C   0  0  0  0  0  0  0  0  0  0  0  0
   31.1080   71.9650   16.8100 C   0  0  1  0  0  0  0  0  0  0  0  0
   30.8360   70.4280   16.7710 C   0  0  1  0  0  0  0  0  0  0  0  0
   29.7650   70.0180   15.7430 C   0  0  0  0  0  0  0  0  0  0  0  0
   29.4590   68.5340   15.8500 C   0  0  0  0  0  0  0  0  0  0  0  0
   30.6760   67.6460   15.8040 C   0  0  0  0  0  0  0  0  0  0  0  0
   30.5850   66.4710   15.4470 O   0  0  0  0  0  0  0  0  0  0  0  0
   31.8490   68.1860   16.2720 N   0  0  0  0  0  0  0  0  0  0  0  0
   32.1360   69.6130   16.5130 C   0  0  2  0  0  0  0  0  0  0  0  0
   33.0620   69.6730   17.7460 C   0  0  0  0  0  0  0  0  0  0  0  0
   32.8740   70.1530   15.2690 C   0  0  0  0  0  0  0  0  0  0  0  0
   33.1370   71.6570   15.3120 C   0  0  0  0  0  0  0  0  0  0  0  0
   31.8560   72.4810   15.5480 C   0  0  2  0  0  0  0  0  0  0  0  0
   32.7014   74.2426   17.6843 H   0  0  0  0  0  0  0  0  0  0  0  0
   34.0356   73.7543   16.5851 H   0  0  0  0  0  0  0  0  0  0  0  0
   33.4474   75.4516   16.5851 H   0  0  0  0  0  0  0  0  0  0  0  0
   33.6718   74.1298   14.0842 H   0  0  0  0  0  0  0  0  0  0  0  0
   31.9584   74.1971   13.4522 H   0  0  0  0  0  0  0  0  0  0  0  0
   33.4968   76.4299   14.8264 H   0  0  0  0  0  0  0  0  0  0  0  0
   33.0009   76.3145   13.0807 H   0  0  0  0  0  0  0  0  0  0  0  0
   30.6837   76.4563   13.6573 H   0  0  0  0  0  0  0  0  0  0  0  0
   30.6446   81.0299   14.1576 H   0  0  0  0  0  0  0  0  0  0  0  0
   29.4720   80.2218   15.2958 H   0  0  0  0  0  0  0  0  0  0  0  0
   32.1336   79.3436   15.9041 H   0  0  0  0  0  0  0  0  0  0  0  0
   32.0690   81.1710   15.8309 H   0  0  0  0  0  0  0  0  0  0  0  0
   31.3521   81.1222   17.9215 H   0  0  0  0  0  0  0  0  0  0  0  0
   29.7966   80.4385   17.2268 H   0  0  0  0  0  0  0  0  0  0  0  0
   33.1929   78.9905   17.9559 H   0  0  0  0  0  0  0  0  0  0  0  0
   33.4591   76.9025   19.2949 H   0  0  0  0  0  0  0  0  0  0  0  0
   30.0001   74.9634   21.7888 H   0  0  0  0  0  0  0  0  0  0  0  0
   29.5374   74.9212   20.0416 H   0  0  0  0  0  0  0  0  0  0  0  0
   31.3043   73.0458   19.8283 H   0  0  0  0  0  0  0  0  0  0  0  0
   31.2007   72.9586   21.6340 H   0  0  0  0  0  0  0  0  0  0  0  0
   32.9065   74.0297   20.7634 H   0  0  0  0  0  0  0  0  0  0  0  0
   33.5602   75.6580   20.3282 H   0  0  0  0  0  0  0  0  0  0  0  0
   32.0606   75.1734   22.9218 H   0  0  0  0  0  0  0  0  0  0  0  0
   33.8392   74.8751   22.7580 H   0  0  0  0  0  0  0  0  0  0  0  0
   29.1842   76.7507   19.9059 H   0  0  0  0  0  0  0  0  0  0  0  0
   28.9178   78.8360   18.5632 H   0  0  0  0  0  0  0  0  0  0  0  0
   31.4843   76.6304   16.5881 H   0  0  0  0  0  0  0  0  0  0  0  0
   29.8199   76.6896   15.8839 H   0  0  0  0  0  0  0  0  0  0  0  0
   30.0964   74.4369   15.0041 H   0  0  0  0  0  0  0  0  0  0  0  0
   30.7396   74.5060   17.9872 H   0  0  0  0  0  0  0  0  0  0  0  0
   29.1184   74.7989   17.2595 H   0  0  0  0  0  0  0  0  0  0  0  0
   29.4101   72.4525   18.0521 H   0  0  0  0  0  0  0  0  0  0  0  0
   29.1287   72.5816   16.2579 H   0  0  0  0  0  0  0  0  0  0  0  0
   31.7870   72.1301   17.6595 H   0  0  0  0  0  0  0  0  0  0  0  0
   30.4470   70.1875   17.7714 H   0  0  0  0  0  0  0  0  0  0  0  0
   28.8452   70.5910   15.9317 H   0  0  0  0  0  0  0  0  0  0  0  0
   30.1452   70.2289   14.7326 H   0  0  0  0  0  0  0  0  0  0  0  0
   28.9390   68.3571   16.8031 H   0  0  0  0  0  0  0  0  0  0  0  0
   28.8457   68.2744   14.9745 H   0  0  0  0  0  0  0  0  0  0  0  0
   32.6090   67.5230   16.4790 H   0  0  0  0  0  0  0  0  0  0  0  0
   32.4551   69.6337   18.6626 H   0  0  0  0  0  0  0  0  0  0  0  0
   33.7536   68.8178   17.7272 H   0  0  0  0  0  0  0  0  0  0  0  0
   33.6374   70.6103   17.7272 H   0  0  0  0  0  0  0  0  0  0  0  0
   33.8405   69.6342   15.1869 H   0  0  0  0  0  0  0  0  0  0  0  0
   32.2210   69.9668   14.4036 H   0  0  0  0  0  0  0  0  0  0  0  0
   33.8450   71.8668   16.1273 H   0  0  0  0  0  0  0  0  0  0  0  0
   33.5436   71.9502   14.3328 H   0  0  0  0  0  0  0  0  0  0  0  0
   31.2041   72.3290   14.6751 H   0  0  0  0  0  0  0  0  0  0  0  0
  2  1  1  1
  2  3  1  0
  3  4  1  0
  4  5  1  0
  5  6  1  0
  6  7  1  0
  7  8  2  0
  7  9  1  0
  9 10  1  0
 10 11  1  0
 11 12  1  0
 12 13  1  0
 13 14  2  0
 14 15  1  0
 15 16  1  0
 16 17  1  0
 17 18  1  0
 18 19  1  0
 16 20  1  0
 20 21  1  0
 21 22  1  0
 15 23  2  0
 23 24  1  0
  5 25  1  0
 25 26  1  0
 26 27  1  0
 27 28  1  0
 28 29  1  0
 29 30  1  0
 30 31  1  0
 31 32  1  0
 32 33  1  0
 33 34  2  0
 33 35  1  0
 35 36  1  0
 36 37  1  1
 36 38  1  0
 38 39  1  0
 39 40  1  0
 26  2  1  0
 40 29  1  0
 40  2  1  0
 24 12  2  0
 36 30  1  0
  1 41  1  0
  1 42  1  0
  1 43  1  0
  3 44  1  0
  3 45  1  0
  4 46  1  0
  4 47  1  0
  5 48  1  6
  9 49  1  0
  9 50  1  0
 10 51  1  0
 10 52  1  0
 11 53  1  0
 11 54  1  0
 13 55  1  0
 14 56  1  0
 17 57  1  0
 17 58  1  0
 18 59  1  0
 18 60  1  0
 20 61  1  0
 20 62  1  0
 21 63  1  0
 21 64  1  0
 23 65  1  0
 24 66  1  0
 25 67  1  0
 25 68  1  0
 26 69  1  6
 27 70  1  0
 27 71  1  0
 28 72  1  0
 28 73  1  0
 29 74  1  1
 30 75  1  1
 31 76  1  0
 31 77  1  0
 32 78  1  0
 32 79  1  0
 35 80  1  0
 37 81  1  0
 37 82  1  0
 37 83  1  0
 38 84  1  0
 38 85  1  0
 39 86  1  0
 39 87  1  0
 40 88  1  6
M  END
>  <meeko>  (7) 
{"is_sidechain": [false], "free_energy": -7.157, "intermolecular_energy": -11.494, "internal_energy": -3.115}

$$$$
SCHEMBL29564401_10008594_out
     RDKit          3D

 88 92  0  0  0  0  0  0  0  0999 V2000
   31.8440   72.9360   15.1580 C   0  0  0  0  0  0  0  0  0  0  0  0
   31.7240   74.3150   15.8610 C   0  0  2  0  0  0  0  0  0  0  0  0
   30.7850   75.2160   15.0070 C   0  0  0  0  0  0  0  0  0  0  0  0
   31.3710   75.5910   13.6450 C   0  0  0  0  0  0  0  0  0  0  0  0
   32.7540   76.2240   13.7610 C   0  0  2  0  0  0  0  0  0  0  0  0
   33.2850   76.4020   12.4520 O   0  0  0  0  0  0  0  0  0  0  0  0
   32.6100   77.2850   11.6530 C   0  0  0  0  0  0  0  0  0  0  0  0
   32.1340   77.0330   10.5550 O   0  0  0  0  0  0  0  0  0  0  0  0
   32.5640   78.6440   12.3140 C   0  0  0  0  0  0  0  0  0  0  0  0
   31.1670   79.2690   12.2970 C   0  0  0  0  0  0  0  0  0  0  0  0
   31.0330   80.5170   13.1820 C   0  0  0  0  0  0  0  0  0  0  0  0
   30.9020   80.2310   14.6560 C   0  0  0  0  0  0  0  0  0  0  0  0
   30.3580   79.0210   15.0870 C   0  0  0  0  0  0  0  0  0  0  0  0
   30.2370   78.7580   16.4510 C   0  0  0  0  0  0  0  0  0  0  0  0
   30.6620   79.7040   17.3850 C   0  0  0  0  0  0  0  0  0  0  0  0
   30.5400   79.4360   18.7640 N   0  0  0  0  0  0  0  0  0  0  0  0
   29.2530   79.0950   19.3350 C   0  0  0  0  0  0  0  0  0  0  0  0
   28.2740   80.2510   19.2050 C   0  0  0  0  0  0  0  0  0  0  0  0
   26.5910   79.6720   19.1270 Cl  0  0  0  0  0  0  0  0  0  0  0  0
   31.6990   79.5130   19.6310 C   0  0  0  0  0  0  0  0  0  0  0  0
   32.6280   78.3300   19.4060 C   0  0  0  0  0  0  0  0  0  0  0  0
   33.2830   77.7140   20.9430 Cl  0  0  0  0  0  0  0  0  0  0  0  0
   31.2070   80.9130   16.9530 C   0  0  0  0  0  0  0  0  0  0  0  0
   31.3270   81.1770   15.5900 C   0  0  0  0  0  0  0  0  0  0  0  0
   33.7110   75.3700   14.5920 C   0  0  0  0  0  0  0  0  0  0  0  0
   33.1050   75.0360   15.9600 C   0  0  2  0  0  0  0  0  0  0  0  0
   34.0960   74.2630   16.8370 C   0  0  0  0  0  0  0  0  0  0  0  0
   33.5420   74.1160   18.2510 C   0  0  0  0  0  0  0  0  0  0  0  0
   32.1560   73.4480   18.2800 C   0  0  1  0  0  0  0  0  0  0  0  0
   31.6070   73.2960   19.7340 C   0  0  1  0  0  0  0  0  0  0  0  0
   31.5280   74.6260   20.5060 C   0  0  0  0  0  0  0  0  0  0  0  0
   31.1130   74.3870   21.9470 C   0  0  0  0  0  0  0  0  0  0  0  0
   29.8680   73.5530   22.1020 C   0  0  0  0  0  0  0  0  0  0  0  0
   29.1790   73.6330   23.1200 O   0  0  0  0  0  0  0  0  0  0  0  0
   29.6100   72.6420   21.1070 N   0  0  0  0  0  0  0  0  0  0  0  0
   30.2160   72.6000   19.7620 C   0  0  2  0  0  0  0  0  0  0  0  0
   30.3510   71.1100   19.3880 C   0  0  0  0  0  0  0  0  0  0  0  0
   29.2410   73.3050   18.7930 C   0  0  0  0  0  0  0  0  0  0  0  0
   29.7820   73.4510   17.3730 C   0  0  0  0  0  0  0  0  0  0  0  0
   31.1520   74.1550   17.3260 C   0  0  2  0  0  0  0  0  0  0  0  0
   31.9131   72.1425   15.9166 H   0  0  0  0  0  0  0  0  0  0  0  0
   30.9572   72.7664   14.5296 H   0  0  0  0  0  0  0  0  0  0  0  0
   32.7467   72.9221   14.5296 H   0  0  0  0  0  0  0  0  0  0  0  0
   29.8402   74.6771   14.8429 H   0  0  0  0  0  0  0  0  0  0  0  0
   30.6400   76.1526   15.5654 H   0  0  0  0  0  0  0  0  0  0  0  0
   31.4493   74.6813   13.0316 H   0  0  0  0  0  0  0  0  0  0  0  0
   30.7009   76.3317   13.1842 H   0  0  0  0  0  0  0  0  0  0  0  0
   32.6487   77.1906   14.2754 H   0  0  0  0  0  0  0  0  0  0  0  0
   32.8874   78.5365   13.3599 H   0  0  0  0  0  0  0  0  0  0  0  0
   33.2298   79.3098   11.7453 H   0  0  0  0  0  0  0  0  0  0  0  0
   30.9264   79.5513   11.2614 H   0  0  0  0  0  0  0  0  0  0  0  0
   30.4750   78.5153   12.7008 H   0  0  0  0  0  0  0  0  0  0  0  0
   31.9261   81.1413   13.0319 H   0  0  0  0  0  0  0  0  0  0  0  0
   30.1011   81.0158   12.8777 H   0  0  0  0  0  0  0  0  0  0  0  0
   30.0246   78.2745   14.3511 H   0  0  0  0  0  0  0  0  0  0  0  0
   29.8064   77.8046   16.7910 H   0  0  0  0  0  0  0  0  0  0  0  0
   28.8468   78.2190   18.8082 H   0  0  0  0  0  0  0  0  0  0  0  0
   29.3921   78.8729   20.4033 H   0  0  0  0  0  0  0  0  0  0  0  0
   28.3846   80.9133   20.0763 H   0  0  0  0  0  0  0  0  0  0  0  0
   28.4978   80.7910   18.2732 H   0  0  0  0  0  0  0  0  0  0  0  0
   32.2449   80.4443   19.4197 H   0  0  0  0  0  0  0  0  0  0  0  0
   31.3564   79.4955   20.6761 H   0  0  0  0  0  0  0  0  0  0  0  0
   32.0677   77.5250   18.9079 H   0  0  0  0  0  0  0  0  0  0  0  0
   33.4693   78.6654   18.7817 H   0  0  0  0  0  0  0  0  0  0  0  0
   31.5424   81.6587   17.6888 H   0  0  0  0  0  0  0  0  0  0  0  0
   31.7567   82.1309   15.2502 H   0  0  0  0  0  0  0  0  0  0  0  0
   33.9182   74.4341   14.0525 H   0  0  0  0  0  0  0  0  0  0  0  0
   34.6394   75.9383   14.7501 H   0  0  0  0  0  0  0  0  0  0  0  0
   32.9028   75.9983   16.4531 H   0  0  0  0  0  0  0  0  0  0  0  0
   34.2615   73.2647   16.4056 H   0  0  0  0  0  0  0  0  0  0  0  0
   35.0463   74.8154   16.8786 H   0  0  0  0  0  0  0  0  0  0  0  0
   34.2401   73.5035   18.8404 H   0  0  0  0  0  0  0  0  0  0  0  0
   33.4323   75.1266   18.6713 H   0  0  0  0  0  0  0  0  0  0  0  0
   32.2807   72.4255   17.8940 H   0  0  0  0  0  0  0  0  0  0  0  0
   32.3438   72.6587   20.2448 H   0  0  0  0  0  0  0  0  0  0  0  0
   32.5149   75.1116   20.4904 H   0  0  0  0  0  0  0  0  0  0  0  0
   30.7776   75.2702   20.0243 H   0  0  0  0  0  0  0  0  0  0  0  0
   31.9381   73.8740   22.4628 H   0  0  0  0  0  0  0  0  0  0  0  0
   30.8878   75.3735   22.3783 H   0  0  0  0  0  0  0  0  0  0  0  0
   28.9200   71.9080   21.3230 H   0  0  0  0  0  0  0  0  0  0  0  0
   30.4058   70.5052   20.3052 H   0  0  0  0  0  0  0  0  0  0  0  0
   29.4773   70.7999   18.7960 H   0  0  0  0  0  0  0  0  0  0  0  0
   31.2662   70.9620   18.7960 H   0  0  0  0  0  0  0  0  0  0  0  0
   28.3102   72.7203   18.7512 H   0  0  0  0  0  0  0  0  0  0  0  0
   29.0822   74.3218   19.1816 H   0  0  0  0  0  0  0  0  0  0  0  0
   29.8864   72.4488   16.9318 H   0  0  0  0  0  0  0  0  0  0  0  0
   29.0705   74.0725   16.8095 H   0  0  0  0  0  0  0  0  0  0  0  0
   31.0016   75.1838   17.6850 H   0  0  0  0  0  0  0  0  0  0  0  0
  2  1  1  6
  2  3  1  0
  3  4  1  0
  4  5  1  0
  5  6  1  0
  6  7  1  0
  7  8  2  0
  7  9  1  0
  9 10  1  0
 10 11  1  0
 11 12  1  0
 12 13  1  0
 13 14  2  0
 14 15  1  0
 15 16  1  0
 16 17  1  0
 17 18  1  0
 18 19  1  0
 16 20  1  0
 20 21  1  0
 21 22  1  0
 15 23  2  0
 23 24  1  0
  5 25  1  0
 25 26  1  0
 26 27  1  0
 27 28  1  0
 28 29  1  0
 29 30  1  0
 30 31  1  0
 31 32  1  0
 32 33  1  0
 33 34  2  0
 33 35  1  0
 35 36  1  0
 36 37  1  6
 36 38  1  0
 38 39  1  0
 39 40  1  0
 26  2  1  0
 40 29  1  0
 40  2  1  0
 24 12  2  0
 36 30  1  0
  1 41  1  0
  1 42  1  0
  1 43  1  0
  3 44  1  0
  3 45  1  0
  4 46  1  0
  4 47  1  0
  5 48  1  1
  9 49  1  0
  9 50  1  0
 10 51  1  0
 10 52  1  0
 11 53  1  0
 11 54  1  0
 13 55  1  0
 14 56  1  0
 17 57  1  0
 17 58  1  0
 18 59  1  0
 18 60  1  0
 20 61  1  0
 20 62  1  0
 21 63  1  0
 21 64  1  0
 23 65  1  0
 24 66  1  0
 25 67  1  0
 25 68  1  0
 26 69  1  1
 27 70  1  0
 27 71  1  0
 28 72  1  0
 28 73  1  0
 29 74  1  6
 30 75  1  1
 31 76  1  0
 31 77  1  0
 32 78  1  0
 32 79  1  0
 35 80  1  0
 37 81  1  0
 37 82  1  0
 37 83  1  0
 38 84  1  0
 38 85  1  0
 39 86  1  0
 39 87  1  0
 40 88  1  1
M  END
>  <meeko>  (8) 
{"is_sidechain": [false], "free_energy": -7.032, "intermolecular_energy": -11.882, "internal_energy": -2.521}

$$$$
SCHEMBL29564401_10008594_out
     RDKit          3D

 88 92  0  0  0  0  0  0  0  0999 V2000
   30.4960   73.3820   21.1690 C   0  0  0  0  0  0  0  0  0  0  0  0
   30.5250   74.0570   19.7720 C   0  0  2  0  0  0  0  0  0  0  0  0
   29.0710   74.0850   19.2160 C   0  0  0  0  0  0  0  0  0  0  0  0
   28.5110   72.6980   18.8990 C   0  0  0  0  0  0  0  0  0  0  0  0
   29.4200   71.9010   17.9690 C   0  0  2  0  0  0  0  0  0  0  0  0
   28.9040   70.5800   17.8490 O   0  0  0  0  0  0  0  0  0  0  0  0
   29.2720   69.9000   16.7200 C   0  0  0  0  0  0  0  0  0  0  0  0
   29.5850   68.7180   16.6690 O   0  0  0  0  0  0  0  0  0  0  0  0
   29.2690   70.8350   15.5320 C   0  0  0  0  0  0  0  0  0  0  0  0
   30.4770   70.6380   14.6140 C   0  0  0  0  0  0  0  0  0  0  0  0
   31.7990   71.1520   15.2030 C   0  0  0  0  0  0  0  0  0  0  0  0
   31.9550   72.6510   15.1830 C   0  0  0  0  0  0  0  0  0  0  0  0
   33.1700   73.2310   15.5470 C   0  0  0  0  0  0  0  0  0  0  0  0
   33.3130   74.6180   15.5280 C   0  0  0  0  0  0  0  0  0  0  0  0
   32.2420   75.4250   15.1440 C   0  0  0  0  0  0  0  0  0  0  0  0
   32.3880   76.8280   15.1250 N   0  0  0  0  0  0  0  0  0  0  0  0
   33.4510   77.4440   14.3560 C   0  0  0  0  0  0  0  0  0  0  0  0
   33.2270   77.2520   12.8640 C   0  0  0  0  0  0  0  0  0  0  0  0
   34.1870   75.8910   12.2330 Cl  0  0  0  0  0  0  0  0  0  0  0  0
   31.4860   77.6700   15.8840 C   0  0  0  0  0  0  0  0  0  0  0  0
   31.8980   79.1320   15.7920 C   0  0  0  0  0  0  0  0  0  0  0  0
   30.8040   80.1760   16.7320 Cl  0  0  0  0  0  0  0  0  0  0  0  0
   31.0280   74.8440   14.7800 C   0  0  0  0  0  0  0  0  0  0  0  0
   30.8840   73.4580   14.7990 C   0  0  0  0  0  0  0  0  0  0  0  0
   30.8600   71.8460   18.4790 C   0  0  0  0  0  0  0  0  0  0  0  0
   31.4000   73.2530   18.7590 C   0  0  2  0  0  0  0  0  0  0  0  0
   32.8730   73.2140   19.1770 C   0  0  0  0  0  0  0  0  0  0  0  0
   33.4340   74.6310   19.2590 C   0  0  0  0  0  0  0  0  0  0  0  0
   32.6260   75.5370   20.2050 C   0  0  1  0  0  0  0  0  0  0  0  0
   33.2170   76.9790   20.2860 C   0  0  1  0  0  0  0  0  0  0  0  0
   33.3320   77.6760   18.9170 C   0  0  0  0  0  0  0  0  0  0  0  0
   34.0330   79.0170   19.0540 C   0  0  0  0  0  0  0  0  0  0  0  0
   33.4490   79.9150   20.1140 C   0  0  0  0  0  0  0  0  0  0  0  0
   33.5980   81.1360   20.0570 O   0  0  0  0  0  0  0  0  0  0  0  0
   32.8420   79.2950   21.1790 N   0  0  0  0  0  0  0  0  0  0  0  0
   32.4110   77.8860   21.2600 C   0  0  2  0  0  0  0  0  0  0  0  0
   32.6350   77.4410   22.7190 C   0  0  0  0  0  0  0  0  0  0  0  0
   30.9060   77.8420   20.9160 C   0  0  0  0  0  0  0  0  0  0  0  0
   30.3320   76.4290   20.8380 C   0  0  0  0  0  0  0  0  0  0  0  0
   31.1090   75.5230   19.8640 C   0  0  2  0  0  0  0  0  0  0  0  0
   30.5292   74.1553   21.9506 H   0  0  0  0  0  0  0  0  0  0  0  0
   29.5718   72.7947   21.2733 H   0  0  0  0  0  0  0  0  0  0  0  0
   31.3664   72.7176   21.2733 H   0  0  0  0  0  0  0  0  0  0  0  0
   28.4209   74.5597   19.9657 H   0  0  0  0  0  0  0  0  0  0  0  0
   29.0976   74.6464   18.2704 H   0  0  0  0  0  0  0  0  0  0  0  0
   28.3936   72.1411   19.8403 H   0  0  0  0  0  0  0  0  0  0  0  0
   27.5466   72.8351   18.3879 H   0  0  0  0  0  0  0  0  0  0  0  0
   29.4388   72.4038   16.9908 H   0  0  0  0  0  0  0  0  0  0  0  0
   28.3531   70.6583   14.9490 H   0  0  0  0  0  0  0  0  0  0  0  0
   29.3156   71.8626   15.9216 H   0  0  0  0  0  0  0  0  0  0  0  0
   30.5843   69.5625   14.4094 H   0  0  0  0  0  0  0  0  0  0  0  0
   30.2844   71.2249   13.7038 H   0  0  0  0  0  0  0  0  0  0  0  0
   31.8631   70.8145   16.2480 H   0  0  0  0  0  0  0  0  0  0  0  0
   32.6010   70.7470   14.5683 H   0  0  0  0  0  0  0  0  0  0  0  0
   34.0150   72.5947   15.8489 H   0  0  0  0  0  0  0  0  0  0  0  0
   34.2708   75.0759   15.8160 H   0  0  0  0  0  0  0  0  0  0  0  0
   33.4793   78.5206   14.5798 H   0  0  0  0  0  0  0  0  0  0  0  0
   34.4036   76.9677   14.6312 H   0  0  0  0  0  0  0  0  0  0  0  0
   32.1604   77.0510   12.6851 H   0  0  0  0  0  0  0  0  0  0  0  0
   33.5436   78.1690   12.3454 H   0  0  0  0  0  0  0  0  0  0  0  0
   30.4672   77.5575   15.4847 H   0  0  0  0  0  0  0  0  0  0  0  0
   31.5225   77.3612   16.9391 H   0  0  0  0  0  0  0  0  0  0  0  0
   32.9204   79.2410   16.1830 H   0  0  0  0  0  0  0  0  0  0  0  0
   31.8485   79.4398   14.7371 H   0  0  0  0  0  0  0  0  0  0  0  0
   30.1831   75.4802   14.4776 H   0  0  0  0  0  0  0  0  0  0  0  0
   29.9260   73.0005   14.5112 H   0  0  0  0  0  0  0  0  0  0  0  0
   30.8899   71.2581   19.4083 H   0  0  0  0  0  0  0  0  0  0  0  0
   31.4871   71.3784   17.7056 H   0  0  0  0  0  0  0  0  0  0  0  0
   31.3369   73.8038   17.8089 H   0  0  0  0  0  0  0  0  0  0  0  0
   32.9588   72.7314   20.1618 H   0  0  0  0  0  0  0  0  0  0  0  0
   33.4439   72.6441   18.4292 H   0  0  0  0  0  0  0  0  0  0  0  0
   34.4708   74.5783   19.6228 H   0  0  0  0  0  0  0  0  0  0  0  0
   33.3776   75.0690   18.2515 H   0  0  0  0  0  0  0  0  0  0  0  0
   32.7190   75.1149   21.2165 H   0  0  0  0  0  0  0  0  0  0  0  0
   34.2362   76.8410   20.6760 H   0  0  0  0  0  0  0  0  0  0  0  0
   33.9083   77.0356   18.2331 H   0  0  0  0  0  0  0  0  0  0  0  0
   32.3201   77.8450   18.5202 H   0  0  0  0  0  0  0  0  0  0  0  0
   35.0881   78.8306   19.3030 H   0  0  0  0  0  0  0  0  0  0  0  0
   33.9069   79.5387   18.0938 H   0  0  0  0  0  0  0  0  0  0  0  0
   32.6720   79.8760   22.0130 H   0  0  0  0  0  0  0  0  0  0  0  0
   32.2470   78.2118   23.4011 H   0  0  0  0  0  0  0  0  0  0  0  0
   32.1067   76.4930   22.8984 H   0  0  0  0  0  0  0  0  0  0  0  0
   33.7112   77.3007   22.8984 H   0  0  0  0  0  0  0  0  0  0  0  0
   30.3569   78.3970   21.6909 H   0  0  0  0  0  0  0  0  0  0  0  0
   30.7927   78.2891   19.9174 H   0  0  0  0  0  0  0  0  0  0  0  0
   30.3677   75.9791   21.8411 H   0  0  0  0  0  0  0  0  0  0  0  0
   29.3006   76.5102   20.4642 H   0  0  0  0  0  0  0  0  0  0  0  0
   30.9796   75.9429   18.8556 H   0  0  0  0  0  0  0  0  0  0  0  0
  2  1  1  1
  2  3  1  0
  3  4  1  0
  4  5  1  0
  5  6  1  0
  6  7  1  0
  7  8  2  0
  7  9  1  0
  9 10  1  0
 10 11  1  0
 11 12  1  0
 12 13  1  0
 13 14  2  0
 14 15  1  0
 15 16  1  0
 16 17  1  0
 17 18  1  0
 18 19  1  0
 16 20  1  0
 20 21  1  0
 21 22  1  0
 15 23  2  0
 23 24  1  0
  5 25  1  0
 25 26  1  0
 26 27  1  0
 27 28  1  0
 28 29  1  0
 29 30  1  0
 30 31  1  0
 31 32  1  0
 32 33  1  0
 33 34  2  0
 33 35  1  0
 35 36  1  0
 36 37  1  1
 36 38  1  0
 38 39  1  0
 39 40  1  0
 26  2  1  0
 40 29  1  0
 40  2  1  0
 24 12  2  0
 36 30  1  0
  1 41  1  0
  1 42  1  0
  1 43  1  0
  3 44  1  0
  3 45  1  0
  4 46  1  0
  4 47  1  0
  5 48  1  6
  9 49  1  0
  9 50  1  0
 10 51  1  0
 10 52  1  0
 11 53  1  0
 11 54  1  0
 13 55  1  0
 14 56  1  0
 17 57  1  0
 17 58  1  0
 18 59  1  0
 18 60  1  0
 20 61  1  0
 20 62  1  0
 21 63  1  0
 21 64  1  0
 23 65  1  0
 24 66  1  0
 25 67  1  0
 25 68  1  0
 26 69  1  6
 27 70  1  0
 27 71  1  0
 28 72  1  0
 28 73  1  0
 29 74  1  1
 30 75  1  1
 31 76  1  0
 31 77  1  0
 32 78  1  0
 32 79  1  0
 35 80  1  0
 37 81  1  0
 37 82  1  0
 37 83  1  0
 38 84  1  0
 38 85  1  0
 39 86  1  0
 39 87  1  0
 40 88  1  6
M  END
>  <meeko>  (9) 
{"is_sidechain": [false], "free_energy": -6.938, "intermolecular_energy": -11.154, "internal_energy": -3.095}

$$$$
