SCHEMBL24279188_10054794_out
     RDKit          3D

 75 79  0  0  0  0  0  0  0  0999 V2000
   29.1590   71.6590   14.4130 O   0  0  0  0  0  0  0  0  0  0  0  0
   30.0070   71.3360   15.2350 C   0  0  0  0  0  0  0  0  0  0  0  0
   31.4580   71.7550   15.1770 C   0  0  0  0  0  0  0  0  0  0  0  0
   31.6370   73.2470   14.8880 C   0  0  0  0  0  0  0  0  0  0  0  0
   32.6710   73.9370   15.7890 C   0  0  0  0  0  0  0  0  0  0  0  0
   32.1540   75.1480   16.5230 C   0  0  0  0  0  0  0  0  0  0  0  0
   30.8050   75.4940   16.4360 C   0  0  0  0  0  0  0  0  0  0  0  0
   30.3270   76.6140   17.1150 C   0  0  0  0  0  0  0  0  0  0  0  0
   31.1980   77.3890   17.8810 C   0  0  0  0  0  0  0  0  0  0  0  0
   30.7130   78.5230   18.5660 N   0  0  0  0  0  0  0  0  0  0  0  0
   31.5920   79.2900   19.4270 C   0  0  0  0  0  0  0  0  0  0  0  0
   32.2300   80.4430   18.6680 C   0  0  0  0  0  0  0  0  0  0  0  0
   33.6370   81.0970   19.5410 Cl  0  0  0  0  0  0  0  0  0  0  0  0
   29.3280   78.9270   18.4310 C   0  0  0  0  0  0  0  0  0  0  0  0
   28.8720   79.7260   19.6420 C   0  0  0  0  0  0  0  0  0  0  0  0
   27.1140   79.5860   19.8910 Cl  0  0  0  0  0  0  0  0  0  0  0  0
   32.5460   77.0460   17.9670 C   0  0  0  0  0  0  0  0  0  0  0  0
   33.0240   75.9250   17.2880 C   0  0  0  0  0  0  0  0  0  0  0  0
   29.8130   70.5310   16.3160 O   0  0  0  0  0  0  0  0  0  0  0  0
   30.6720   70.7980   17.4390 C   0  0  2  0  0  0  0  0  0  0  0  0
   30.8410   69.5240   18.2580 C   0  0  0  0  0  0  0  0  0  0  0  0
   29.7850   69.0480   19.0340 C   0  0  0  0  0  0  0  0  0  0  0  0
   29.9390   67.8820   19.7830 C   0  0  0  0  0  0  0  0  0  0  0  0
   31.1510   67.1920   19.7570 C   0  0  0  0  0  0  0  0  0  0  0  0
   32.2080   67.6680   18.9820 C   0  0  0  0  0  0  0  0  0  0  0  0
   32.0540   68.8340   18.2310 C   0  0  0  0  0  0  0  0  0  0  0  0
   30.2070   71.9690   18.2390 C   0  0  0  0  0  0  0  0  0  0  0  0
   28.8490   72.2840   18.2490 C   0  0  0  0  0  0  0  0  0  0  0  0
   28.3880   73.3720   18.9890 C   0  0  0  0  0  0  0  0  0  0  0  0
   27.0480   73.6260   18.9580 O   0  0  0  0  0  0  0  0  0  0  0  0
   29.2900   74.1510   19.7240 C   0  0  0  0  0  0  0  0  0  0  0  0
   30.6500   73.8370   19.7130 C   0  0  0  0  0  0  0  0  0  0  0  0
   31.1090   72.7440   18.9700 C   0  0  0  0  0  0  0  0  0  0  0  0
   32.4280   72.3970   18.9280 O   0  0  0  0  0  0  0  0  0  0  0  0
   31.6130   74.6510   20.4830 C   0  0  0  0  0  0  0  0  0  0  0  0
   32.8110   74.3980   20.4930 O   0  0  0  0  0  0  0  0  0  0  0  0
   31.1160   75.8020   21.2640 C   0  0  0  0  0  0  0  0  0  0  0  0
   32.0180   76.5820   21.9980 C   0  0  0  0  0  0  0  0  0  0  0  0
   31.5570   77.6700   22.7390 C   0  0  0  0  0  0  0  0  0  0  0  0
   30.2000   77.9840   22.7490 C   0  0  0  0  0  0  0  0  0  0  0  0
   29.2970   77.2100   22.0200 C   0  0  0  0  0  0  0  0  0  0  0  0
   29.7550   76.1160   21.2750 C   0  0  0  0  0  0  0  0  0  0  0  0
   28.7920   75.3030   20.5060 C   0  0  0  0  0  0  0  0  0  0  0  0
   27.6050   75.5990   20.5300 O   0  0  0  0  0  0  0  0  0  0  0  0
   31.9281   71.5263   16.1448 H   0  0  0  0  0  0  0  0  0  0  0  0
   31.9284   71.2006   14.3516 H   0  0  0  0  0  0  0  0  0  0  0  0
   31.9585   73.3608   13.8422 H   0  0  0  0  0  0  0  0  0  0  0  0
   30.6684   73.7287   15.0877 H   0  0  0  0  0  0  0  0  0  0  0  0
   33.0187   73.2065   16.5343 H   0  0  0  0  0  0  0  0  0  0  0  0
   33.4741   74.2927   15.1268 H   0  0  0  0  0  0  0  0  0  0  0  0
   30.1185   74.8830   15.8316 H   0  0  0  0  0  0  0  0  0  0  0  0
   29.2635   76.8864   17.0467 H   0  0  0  0  0  0  0  0  0  0  0  0
   31.0094   79.6924   20.2688 H   0  0  0  0  0  0  0  0  0  0  0  0
   32.3902   78.6270   19.7921 H   0  0  0  0  0  0  0  0  0  0  0  0
   32.5566   80.0842   17.6808 H   0  0  0  0  0  0  0  0  0  0  0  0
   31.4836   81.2445   18.5652 H   0  0  0  0  0  0  0  0  0  0  0  0
   29.2208   79.5480   17.5294 H   0  0  0  0  0  0  0  0  0  0  0  0
   28.7057   78.0233   18.3532 H   0  0  0  0  0  0  0  0  0  0  0  0
   29.3909   79.3485   20.5355 H   0  0  0  0  0  0  0  0  0  0  0  0
   29.1130   80.7851   19.4678 H   0  0  0  0  0  0  0  0  0  0  0  0
   33.2325   77.6587   18.5698 H   0  0  0  0  0  0  0  0  0  0  0  0
   34.0878   75.6536   17.3559 H   0  0  0  0  0  0  0  0  0  0  0  0
   31.6666   71.0934   17.0737 H   0  0  0  0  0  0  0  0  0  0  0  0
   28.8296   69.5927   19.0554 H   0  0  0  0  0  0  0  0  0  0  0  0
   29.1051   67.5064   20.3941 H   0  0  0  0  0  0  0  0  0  0  0  0
   31.2730   66.2723   20.3479 H   0  0  0  0  0  0  0  0  0  0  0  0
   33.1639   67.1240   18.9626 H   0  0  0  0  0  0  0  0  0  0  0  0
   32.8874   69.2088   17.6186 H   0  0  0  0  0  0  0  0  0  0  0  0
   28.1396   71.6728   17.6718 H   0  0  0  0  0  0  0  0  0  0  0  0
   26.6960   74.3600   18.3960 H   0  0  0  0  0  0  0  0  0  0  0  0
   32.9790   72.4430   19.7500 H   0  0  0  0  0  0  0  0  0  0  0  0
   33.0903   76.3366   21.9902 H   0  0  0  0  0  0  0  0  0  0  0  0
   32.2663   78.2811   23.3165 H   0  0  0  0  0  0  0  0  0  0  0  0
   29.8398   78.8439   23.3328 H   0  0  0  0  0  0  0  0  0  0  0  0
   28.2256   77.4588   22.0303 H   0  0  0  0  0  0  0  0  0  0  0  0
  1  2  2  0
  2  3  1  0
  3  4  1  0
  4  5  1  0
  5  6  1  0
  6  7  1  0
  7  8  2  0
  8  9  1  0
  9 10  1  0
 10 11  1  0
 11 12  1  0
 12 13  1  0
 10 14  1  0
 14 15  1  0
 15 16  1  0
  9 17  2  0
 17 18  1  0
  2 19  1  0
 19 20  1  0
 20 21  1  0
 21 22  2  0
 22 23  1  0
 23 24  2  0
 24 25  1  0
 25 26  2  0
 20 27  1  0
 27 28  1  0
 28 29  2  0
 29 30  1  0
 29 31  1  0
 31 32  2  0
 32 33  1  0
 33 34  1  0
 32 35  1  0
 35 36  2  0
 35 37  1  0
 37 38  2  0
 38 39  1  0
 39 40  2  0
 40 41  1  0
 41 42  2  0
 42 43  1  0
 43 44  2  0
 18  6  2  0
 26 21  1  0
 33 27  2  0
 42 37  1  0
 43 31  1  0
  3 45  1  0
  3 46  1  0
  4 47  1  0
  4 48  1  0
  5 49  1  0
  5 50  1  0
  7 51  1  0
  8 52  1  0
 11 53  1  0
 11 54  1  0
 12 55  1  0
 12 56  1  0
 14 57  1  0
 14 58  1  0
 15 59  1  0
 15 60  1  0
 17 61  1  0
 18 62  1  0
 20 63  1  6
 22 64  1  0
 23 65  1  0
 24 66  1  0
 25 67  1  0
 26 68  1  0
 28 69  1  0
 30 70  1  0
 34 71  1  0
 38 72  1  0
 39 73  1  0
 40 74  1  0
 41 75  1  0
M  END
>  <meeko>  (1) 
{"is_sidechain": [false], "free_energy": -7.744, "intermolecular_energy": -14.082, "internal_energy": -4.705}

$$$$
SCHEMBL24279188_10054794_out
     RDKit          3D

 75 79  0  0  0  0  0  0  0  0999 V2000
   32.2110   79.3400   21.2390 O   0  0  0  0  0  0  0  0  0  0  0  0
   31.4180   78.5280   21.6980 C   0  0  0  0  0  0  0  0  0  0  0  0
   31.7620   77.4950   22.7470 C   0  0  0  0  0  0  0  0  0  0  0  0
   32.9660   76.6330   22.3620 C   0  0  0  0  0  0  0  0  0  0  0  0
   32.5910   75.2630   21.7790 C   0  0  0  0  0  0  0  0  0  0  0  0
   32.9500   75.0810   20.3260 C   0  0  0  0  0  0  0  0  0  0  0  0
   32.7980   73.8340   19.7200 C   0  0  0  0  0  0  0  0  0  0  0  0
   33.1290   73.6650   18.3760 C   0  0  0  0  0  0  0  0  0  0  0  0
   33.6140   74.7450   17.6380 C   0  0  0  0  0  0  0  0  0  0  0  0
   33.9510   74.5740   16.2780 N   0  0  0  0  0  0  0  0  0  0  0  0
   34.9460   75.4250   15.6570 C   0  0  0  0  0  0  0  0  0  0  0  0
   34.3480   76.2010   14.4940 C   0  0  0  0  0  0  0  0  0  0  0  0
   32.8660   77.0600   14.9790 Cl  0  0  0  0  0  0  0  0  0  0  0  0
   33.2950   73.5550   15.4820 C   0  0  0  0  0  0  0  0  0  0  0  0
   34.2960   72.5280   14.9770 C   0  0  0  0  0  0  0  0  0  0  0  0
   33.7760   70.8680   15.3580 Cl  0  0  0  0  0  0  0  0  0  0  0  0
   33.7670   75.9920   18.2420 C   0  0  0  0  0  0  0  0  0  0  0  0
   33.4350   76.1600   19.5870 C   0  0  0  0  0  0  0  0  0  0  0  0
   30.1130   78.3860   21.3370 O   0  0  0  0  0  0  0  0  0  0  0  0
   29.8940   78.0170   19.9640 C   0  0  2  0  0  0  0  0  0  0  0  0
   28.8060   78.9030   19.3710 C   0  0  0  0  0  0  0  0  0  0  0  0
   29.0880   79.7130   18.2710 C   0  0  0  0  0  0  0  0  0  0  0  0
   28.0930   80.5250   17.7280 C   0  0  0  0  0  0  0  0  0  0  0  0
   26.8140   80.5250   18.2850 C   0  0  0  0  0  0  0  0  0  0  0  0
   26.5310   79.7160   19.3840 C   0  0  0  0  0  0  0  0  0  0  0  0
   27.5270   78.9040   19.9270 C   0  0  0  0  0  0  0  0  0  0  0  0
   29.6300   76.5550   19.8090 C   0  0  0  0  0  0  0  0  0  0  0  0
   29.1370   75.8390   20.8990 C   0  0  0  0  0  0  0  0  0  0  0  0
   28.8810   74.4730   20.7810 C   0  0  0  0  0  0  0  0  0  0  0  0
   28.3990   73.8310   21.8830 O   0  0  0  0  0  0  0  0  0  0  0  0
   29.1190   73.8190   19.5660 C   0  0  0  0  0  0  0  0  0  0  0  0
   29.6130   74.5360   18.4750 C   0  0  0  0  0  0  0  0  0  0  0  0
   29.8680   75.9070   18.5970 C   0  0  0  0  0  0  0  0  0  0  0  0
   30.3520   76.6510   17.5600 O   0  0  0  0  0  0  0  0  0  0  0  0
   29.8690   73.8590   17.1870 C   0  0  0  0  0  0  0  0  0  0  0  0
   30.3010   74.4630   16.2140 O   0  0  0  0  0  0  0  0  0  0  0  0
   29.5950   72.4120   17.0710 C   0  0  0  0  0  0  0  0  0  0  0  0
   29.8330   71.7580   15.8560 C   0  0  0  0  0  0  0  0  0  0  0  0
   29.5760   70.3920   15.7370 C   0  0  0  0  0  0  0  0  0  0  0  0
   29.0830   69.6770   16.8260 C   0  0  0  0  0  0  0  0  0  0  0  0
   28.8440   70.3240   18.0390 C   0  0  0  0  0  0  0  0  0  0  0  0
   29.1000   71.6950   18.1620 C   0  0  0  0  0  0  0  0  0  0  0  0
   28.8440   72.3720   19.4500 C   0  0  0  0  0  0  0  0  0  0  0  0
   28.4110   71.7210   20.3920 O   0  0  0  0  0  0  0  0  0  0  0  0
   31.9893   78.0144   23.6896 H   0  0  0  0  0  0  0  0  0  0  0  0
   30.8952   76.8252   22.8472 H   0  0  0  0  0  0  0  0  0  0  0  0
   33.5564   77.1787   21.6113 H   0  0  0  0  0  0  0  0  0  0  0  0
   33.5301   76.4422   23.2869 H   0  0  0  0  0  0  0  0  0  0  0  0
   33.1115   74.4881   22.3609 H   0  0  0  0  0  0  0  0  0  0  0  0
   31.4955   75.1860   21.8420 H   0  0  0  0  0  0  0  0  0  0  0  0
   32.4165   72.9828   20.3030 H   0  0  0  0  0  0  0  0  0  0  0  0
   33.0079   72.6815   17.8984 H   0  0  0  0  0  0  0  0  0  0  0  0
   35.3293   76.1352   16.4044 H   0  0  0  0  0  0  0  0  0  0  0  0
   35.7603   74.7919   15.2749 H   0  0  0  0  0  0  0  0  0  0  0  0
   35.0857   76.9343   14.1361 H   0  0  0  0  0  0  0  0  0  0  0  0
   34.0893   75.4869   13.6983 H   0  0  0  0  0  0  0  0  0  0  0  0
   32.5396   73.0472   16.0997 H   0  0  0  0  0  0  0  0  0  0  0  0
   32.8224   74.0389   14.6146 H   0  0  0  0  0  0  0  0  0  0  0  0
   34.3938   72.6305   13.8862 H   0  0  0  0  0  0  0  0  0  0  0  0
   35.2594   72.7109   15.4753 H   0  0  0  0  0  0  0  0  0  0  0  0
   34.1491   76.8429   17.6589 H   0  0  0  0  0  0  0  0  0  0  0  0
   33.5558   77.1436   20.0645 H   0  0  0  0  0  0  0  0  0  0  0  0
   30.8150   78.1923   19.3887 H   0  0  0  0  0  0  0  0  0  0  0  0
   30.0964   79.7112   17.8315 H   0  0  0  0  0  0  0  0  0  0  0  0
   28.3163   81.1648   16.8615 H   0  0  0  0  0  0  0  0  0  0  0  0
   26.0280   81.1642   17.8564 H   0  0  0  0  0  0  0  0  0  0  0  0
   25.5225   79.7177   19.8232 H   0  0  0  0  0  0  0  0  0  0  0  0
   27.3035   78.2645   20.7937 H   0  0  0  0  0  0  0  0  0  0  0  0
   28.9496   76.3523   21.8537 H   0  0  0  0  0  0  0  0  0  0  0  0
   29.0000   73.2650   22.4290 H   0  0  0  0  0  0  0  0  0  0  0  0
   29.7260   77.0540   16.9060 H   0  0  0  0  0  0  0  0  0  0  0  0
   30.2226   72.3213   14.9953 H   0  0  0  0  0  0  0  0  0  0  0  0
   29.7629   69.8790   14.7821 H   0  0  0  0  0  0  0  0  0  0  0  0
   28.8816   68.5999   16.7296 H   0  0  0  0  0  0  0  0  0  0  0  0
   28.4548   69.7574   18.8978 H   0  0  0  0  0  0  0  0  0  0  0  0
  1  2  2  0
  2  3  1  0
  3  4  1  0
  4  5  1  0
  5  6  1  0
  6  7  1  0
  7  8  2  0
  8  9  1  0
  9 10  1  0
 10 11  1  0
 11 12  1  0
 12 13  1  0
 10 14  1  0
 14 15  1  0
 15 16  1  0
  9 17  2  0
 17 18  1  0
  2 19  1  0
 19 20  1  0
 20 21  1  0
 21 22  2  0
 22 23  1  0
 23 24  2  0
 24 25  1  0
 25 26  2  0
 20 27  1  0
 27 28  1  0
 28 29  2  0
 29 30  1  0
 29 31  1  0
 31 32  2  0
 32 33  1  0
 33 34  1  0
 32 35  1  0
 35 36  2  0
 35 37  1  0
 37 38  2  0
 38 39  1  0
 39 40  2  0
 40 41  1  0
 41 42  2  0
 42 43  1  0
 43 44  2  0
 18  6  2  0
 26 21  1  0
 33 27  2  0
 42 37  1  0
 43 31  1  0
  3 45  1  0
  3 46  1  0
  4 47  1  0
  4 48  1  0
  5 49  1  0
  5 50  1  0
  7 51  1  0
  8 52  1  0
 11 53  1  0
 11 54  1  0
 12 55  1  0
 12 56  1  0
 14 57  1  0
 14 58  1  0
 15 59  1  0
 15 60  1  0
 17 61  1  0
 18 62  1  0
 20 63  1  6
 22 64  1  0
 23 65  1  0
 24 66  1  0
 25 67  1  0
 26 68  1  0
 28 69  1  0
 30 70  1  0
 34 71  1  0
 38 72  1  0
 39 73  1  0
 40 74  1  0
 41 75  1  0
M  END
>  <meeko>  (2) 
{"is_sidechain": [false], "free_energy": -7.631, "intermolecular_energy": -13.81, "internal_energy": -4.773}

$$$$
SCHEMBL24279188_10054794_out
     RDKit          3D

 75 79  0  0  0  0  0  0  0  0999 V2000
   28.0250   74.4210   20.0800 O   0  0  0  0  0  0  0  0  0  0  0  0
   28.8270   73.7850   20.7520 C   0  0  0  0  0  0  0  0  0  0  0  0
   29.2120   74.1270   22.1730 C   0  0  0  0  0  0  0  0  0  0  0  0
   30.7090   74.3960   22.3370 C   0  0  0  0  0  0  0  0  0  0  0  0
   31.0510   75.8640   22.6300 C   0  0  0  0  0  0  0  0  0  0  0  0
   30.5920   76.8370   21.5740 C   0  0  0  0  0  0  0  0  0  0  0  0
   29.7000   77.8570   21.9050 C   0  0  0  0  0  0  0  0  0  0  0  0
   29.2760   78.7580   20.9290 C   0  0  0  0  0  0  0  0  0  0  0  0
   29.7440   78.6380   19.6200 C   0  0  0  0  0  0  0  0  0  0  0  0
   29.3140   79.5490   18.6320 N   0  0  0  0  0  0  0  0  0  0  0  0
   28.3370   80.5700   18.9520 C   0  0  0  0  0  0  0  0  0  0  0  0
   26.9960   80.2630   18.3040 C   0  0  0  0  0  0  0  0  0  0  0  0
   25.9690   79.2750   19.3730 Cl  0  0  0  0  0  0  0  0  0  0  0  0
   29.8320   79.4640   17.2810 C   0  0  0  0  0  0  0  0  0  0  0  0
   30.8570   80.5570   17.0200 C   0  0  0  0  0  0  0  0  0  0  0  0
   32.5140   79.9820   17.3280 Cl  0  0  0  0  0  0  0  0  0  0  0  0
   30.6360   77.6190   19.2880 C   0  0  0  0  0  0  0  0  0  0  0  0
   31.0600   76.7180   20.2660 C   0  0  0  0  0  0  0  0  0  0  0  0
   29.5290   72.6920   20.3450 O   0  0  0  0  0  0  0  0  0  0  0  0
   29.6290   72.5240   18.9200 C   0  0  2  0  0  0  0  0  0  0  0  0
   29.7360   71.0400   18.5930 C   0  0  0  0  0  0  0  0  0  0  0  0
   29.8400   70.1050   19.6220 C   0  0  0  0  0  0  0  0  0  0  0  0
   29.9390   68.7460   19.3240 C   0  0  0  0  0  0  0  0  0  0  0  0
   29.9340   68.3230   17.9940 C   0  0  0  0  0  0  0  0  0  0  0  0
   29.8300   69.2580   16.9650 C   0  0  0  0  0  0  0  0  0  0  0  0
   29.7310   70.6170   17.2640 C   0  0  0  0  0  0  0  0  0  0  0  0
   30.7250   73.3510   18.3300 C   0  0  0  0  0  0  0  0  0  0  0  0
   32.0380   73.1180   18.7350 C   0  0  0  0  0  0  0  0  0  0  0  0
   33.0800   73.8750   18.2000 C   0  0  0  0  0  0  0  0  0  0  0  0
   34.3410   73.5970   18.6370 O   0  0  0  0  0  0  0  0  0  0  0  0
   32.8070   74.8700   17.2540 C   0  0  0  0  0  0  0  0  0  0  0  0
   31.4920   75.1040   16.8490 C   0  0  0  0  0  0  0  0  0  0  0  0
   30.4490   74.3420   17.3880 C   0  0  0  0  0  0  0  0  0  0  0  0
   29.1470   74.5330   17.0240 O   0  0  0  0  0  0  0  0  0  0  0  0
   31.1900   76.1520   15.8530 C   0  0  0  0  0  0  0  0  0  0  0  0
   30.0460   76.3770   15.4780 O   0  0  0  0  0  0  0  0  0  0  0  0
   32.2990   76.9490   15.2910 C   0  0  0  0  0  0  0  0  0  0  0  0
   32.0270   77.9440   14.3450 C   0  0  0  0  0  0  0  0  0  0  0  0
   33.0690   78.7020   13.8090 C   0  0  0  0  0  0  0  0  0  0  0  0
   34.3810   78.4680   14.2140 C   0  0  0  0  0  0  0  0  0  0  0  0
   34.6580   77.4770   15.1550 C   0  0  0  0  0  0  0  0  0  0  0  0
   33.6150   76.7140   15.6960 C   0  0  0  0  0  0  0  0  0  0  0  0
   33.9180   75.6670   16.6920 C   0  0  0  0  0  0  0  0  0  0  0  0
   35.0790   75.4820   17.0310 O   0  0  0  0  0  0  0  0  0  0  0  0
   28.6583   75.0267   22.4796 H   0  0  0  0  0  0  0  0  0  0  0  0
   28.9625   73.2585   22.8002 H   0  0  0  0  0  0  0  0  0  0  0  0
   31.0818   73.7811   23.1694 H   0  0  0  0  0  0  0  0  0  0  0  0
   31.1848   74.1435   21.3779 H   0  0  0  0  0  0  0  0  0  0  0  0
   30.5778   76.1431   23.5830 H   0  0  0  0  0  0  0  0  0  0  0  0
   32.1487   75.9291   22.6586 H   0  0  0  0  0  0  0  0  0  0  0  0
   29.3307   77.9507   22.9369 H   0  0  0  0  0  0  0  0  0  0  0  0
   28.5732   79.5627   21.1907 H   0  0  0  0  0  0  0  0  0  0  0  0
   28.2074   80.6144   20.0434 H   0  0  0  0  0  0  0  0  0  0  0  0
   28.6994   81.5348   18.5675 H   0  0  0  0  0  0  0  0  0  0  0  0
   26.4792   81.2091   18.0853 H   0  0  0  0  0  0  0  0  0  0  0  0
   27.1798   79.6961   17.3794 H   0  0  0  0  0  0  0  0  0  0  0  0
   30.3087   78.4828   17.1397 H   0  0  0  0  0  0  0  0  0  0  0  0
   28.9966   79.5918   16.5769 H   0  0  0  0  0  0  0  0  0  0  0  0
   30.7788   80.8776   15.9707 H   0  0  0  0  0  0  0  0  0  0  0  0
   30.6496   81.3954   17.7012 H   0  0  0  0  0  0  0  0  0  0  0  0
   31.0053   77.5253   18.2561 H   0  0  0  0  0  0  0  0  0  0  0  0
   31.7636   75.9138   20.0048 H   0  0  0  0  0  0  0  0  0  0  0  0
   28.7127   72.9034   18.4441 H   0  0  0  0  0  0  0  0  0  0  0  0
   29.8440   70.4394   20.6699 H   0  0  0  0  0  0  0  0  0  0  0  0
   30.0209   68.0086   20.1361 H   0  0  0  0  0  0  0  0  0  0  0  0
   30.0121   67.2516   17.7575 H   0  0  0  0  0  0  0  0  0  0  0  0
   29.8260   68.9240   15.9170 H   0  0  0  0  0  0  0  0  0  0  0  0
   29.6490   71.3546   16.4520 H   0  0  0  0  0  0  0  0  0  0  0  0
   32.2528   72.3357   19.4779 H   0  0  0  0  0  0  0  0  0  0  0  0
   34.5280   72.7420   19.1010 H   0  0  0  0  0  0  0  0  0  0  0  0
   28.4170   74.2130   17.6120 H   0  0  0  0  0  0  0  0  0  0  0  0
   30.9913   78.1287   14.0238 H   0  0  0  0  0  0  0  0  0  0  0  0
   32.8541   79.4846   13.0664 H   0  0  0  0  0  0  0  0  0  0  0  0
   35.2009   79.0666   13.7903 H   0  0  0  0  0  0  0  0  0  0  0  0
   35.6952   77.2943   15.4725 H   0  0  0  0  0  0  0  0  0  0  0  0
  1  2  2  0
  2  3  1  0
  3  4  1  0
  4  5  1  0
  5  6  1  0
  6  7  1  0
  7  8  2  0
  8  9  1  0
  9 10  1  0
 10 11  1  0
 11 12  1  0
 12 13  1  0
 10 14  1  0
 14 15  1  0
 15 16  1  0
  9 17  2  0
 17 18  1  0
  2 19  1  0
 19 20  1  0
 20 21  1  0
 21 22  2  0
 22 23  1  0
 23 24  2  0
 24 25  1  0
 25 26  2  0
 20 27  1  0
 27 28  1  0
 28 29  2  0
 29 30  1  0
 29 31  1  0
 31 32  2  0
 32 33  1  0
 33 34  1  0
 32 35  1  0
 35 36  2  0
 35 37  1  0
 37 38  2  0
 38 39  1  0
 39 40  2  0
 40 41  1  0
 41 42  2  0
 42 43  1  0
 43 44  2  0
 18  6  2  0
 26 21  1  0
 33 27  2  0
 42 37  1  0
 43 31  1  0
  3 45  1  0
  3 46  1  0
  4 47  1  0
  4 48  1  0
  5 49  1  0
  5 50  1  0
  7 51  1  0
  8 52  1  0
 11 53  1  0
 11 54  1  0
 12 55  1  0
 12 56  1  0
 14 57  1  0
 14 58  1  0
 15 59  1  0
 15 60  1  0
 17 61  1  0
 18 62  1  0
 20 63  1  6
 22 64  1  0
 23 65  1  0
 24 66  1  0
 25 67  1  0
 26 68  1  0
 28 69  1  0
 30 70  1  0
 34 71  1  0
 38 72  1  0
 39 73  1  0
 40 74  1  0
 41 75  1  0
M  END
>  <meeko>  (3) 
{"is_sidechain": [false], "free_energy": -7.622, "intermolecular_energy": -13.706, "internal_energy": -4.859}

$$$$
SCHEMBL24279188_10054794_out
     RDKit          3D

 75 79  0  0  0  0  0  0  0  0999 V2000
   32.1420   69.8200   14.2730 O   0  0  0  0  0  0  0  0  0  0  0  0
   31.3510   70.2570   15.0970 C   0  0  0  0  0  0  0  0  0  0  0  0
   30.0950   71.0260   14.7540 C   0  0  0  0  0  0  0  0  0  0  0  0
   30.0330   72.3990   15.4260 C   0  0  0  0  0  0  0  0  0  0  0  0
   31.1250   73.3710   14.9580 C   0  0  0  0  0  0  0  0  0  0  0  0
   31.1500   74.6870   15.6940 C   0  0  0  0  0  0  0  0  0  0  0  0
   32.0760   75.6680   15.3390 C   0  0  0  0  0  0  0  0  0  0  0  0
   32.1000   76.8850   16.0200 C   0  0  0  0  0  0  0  0  0  0  0  0
   31.1970   77.1200   17.0570 C   0  0  0  0  0  0  0  0  0  0  0  0
   31.2220   78.3510   17.7460 N   0  0  0  0  0  0  0  0  0  0  0  0
   29.9850   79.0200   18.0970 C   0  0  0  0  0  0  0  0  0  0  0  0
   29.8560   79.1710   19.6050 C   0  0  0  0  0  0  0  0  0  0  0  0
   28.5710   78.1240   20.2550 Cl  0  0  0  0  0  0  0  0  0  0  0  0
   32.4850   78.9700   18.0980 C   0  0  0  0  0  0  0  0  0  0  0  0
   32.6610   80.2970   17.3760 C   0  0  0  0  0  0  0  0  0  0  0  0
   32.6900   81.6620   18.5190 Cl  0  0  0  0  0  0  0  0  0  0  0  0
   30.2710   76.1400   17.4130 C   0  0  0  0  0  0  0  0  0  0  0  0
   30.2480   74.9230   16.7320 C   0  0  0  0  0  0  0  0  0  0  0  0
   31.4640   70.1600   16.4510 O   0  0  0  0  0  0  0  0  0  0  0  0
   32.7820   70.4030   16.9730 C   0  0  2  0  0  0  0  0  0  0  0  0
   33.2140   69.2160   17.8250 C   0  0  0  0  0  0  0  0  0  0  0  0
   32.3480   68.1380   18.0090 C   0  0  0  0  0  0  0  0  0  0  0  0
   32.7420   67.0510   18.7880 C   0  0  0  0  0  0  0  0  0  0  0  0
   34.0040   67.0410   19.3830 C   0  0  0  0  0  0  0  0  0  0  0  0
   34.8690   68.1190   19.2000 C   0  0  0  0  0  0  0  0  0  0  0  0
   34.4750   69.2060   18.4200 C   0  0  0  0  0  0  0  0  0  0  0  0
   32.8750   71.7150   17.6810 C   0  0  0  0  0  0  0  0  0  0  0  0
   33.8720   72.6150   17.3060 C   0  0  0  0  0  0  0  0  0  0  0  0
   33.9810   73.8470   17.9500 C   0  0  0  0  0  0  0  0  0  0  0  0
   34.9760   74.6820   17.5360 O   0  0  0  0  0  0  0  0  0  0  0  0
   33.0870   74.1820   18.9750 C   0  0  0  0  0  0  0  0  0  0  0  0
   32.0900   73.2810   19.3500 C   0  0  0  0  0  0  0  0  0  0  0  0
   31.9840   72.0450   18.7010 C   0  0  0  0  0  0  0  0  0  0  0  0
   31.0260   71.1310   19.0330 O   0  0  0  0  0  0  0  0  0  0  0  0
   31.1400   73.6210   20.4300 C   0  0  0  0  0  0  0  0  0  0  0  0
   30.2550   72.8500   20.7790 O   0  0  0  0  0  0  0  0  0  0  0  0
   31.2630   74.9280   21.1070 C   0  0  0  0  0  0  0  0  0  0  0  0
   30.3690   75.2630   22.1320 C   0  0  0  0  0  0  0  0  0  0  0  0
   30.4770   76.4960   22.7760 C   0  0  0  0  0  0  0  0  0  0  0  0
   31.4730   77.3950   22.4010 C   0  0  0  0  0  0  0  0  0  0  0  0
   32.3650   77.0660   21.3800 C   0  0  0  0  0  0  0  0  0  0  0  0
   32.2600   75.8300   20.7310 C   0  0  0  0  0  0  0  0  0  0  0  0
   33.2090   75.4900   19.6510 C   0  0  0  0  0  0  0  0  0  0  0  0
   34.0750   76.2970   19.3410 O   0  0  0  0  0  0  0  0  0  0  0  0
   30.0571   71.1672   13.6638 H   0  0  0  0  0  0  0  0  0  0  0  0
   29.2396   70.4404   15.1220 H   0  0  0  0  0  0  0  0  0  0  0  0
   29.0529   72.8478   15.2069 H   0  0  0  0  0  0  0  0  0  0  0  0
   30.1916   72.2350   16.5021 H   0  0  0  0  0  0  0  0  0  0  0  0
   32.1010   72.8825   15.0949 H   0  0  0  0  0  0  0  0  0  0  0  0
   30.9043   73.6056   13.9062 H   0  0  0  0  0  0  0  0  0  0  0  0
   32.7878   75.4816   14.5213 H   0  0  0  0  0  0  0  0  0  0  0  0
   32.8301   77.6586   15.7397 H   0  0  0  0  0  0  0  0  0  0  0  0
   29.9712   80.0173   17.6331 H   0  0  0  0  0  0  0  0  0  0  0  0
   29.1428   78.4137   17.7321 H   0  0  0  0  0  0  0  0  0  0  0  0
   30.8122   78.8979   20.0751 H   0  0  0  0  0  0  0  0  0  0  0  0
   29.5963   80.2165   19.8273 H   0  0  0  0  0  0  0  0  0  0  0  0
   32.5097   79.1451   19.1837 H   0  0  0  0  0  0  0  0  0  0  0  0
   33.3013   78.2965   17.7978 H   0  0  0  0  0  0  0  0  0  0  0  0
   33.6088   80.2776   16.8181 H   0  0  0  0  0  0  0  0  0  0  0  0
   31.8087   80.4352   16.6945 H   0  0  0  0  0  0  0  0  0  0  0  0
   29.5591   76.3267   18.2305 H   0  0  0  0  0  0  0  0  0  0  0  0
   29.5186   74.1491   17.0133 H   0  0  0  0  0  0  0  0  0  0  0  0
   33.4928   70.4898   16.1380 H   0  0  0  0  0  0  0  0  0  0  0  0
   31.3535   68.1456   17.5391 H   0  0  0  0  0  0  0  0  0  0  0  0
   32.0583   66.2017   18.9335 H   0  0  0  0  0  0  0  0  0  0  0  0
   34.3164   66.1829   19.9963 H   0  0  0  0  0  0  0  0  0  0  0  0
   35.8630   68.1122   19.6712 H   0  0  0  0  0  0  0  0  0  0  0  0
   35.1588   70.0552   18.2742 H   0  0  0  0  0  0  0  0  0  0  0  0
   34.5738   72.3526   16.5006 H   0  0  0  0  0  0  0  0  0  0  0  0
   35.8870   74.5910   17.9110 H   0  0  0  0  0  0  0  0  0  0  0  0
   30.1090   71.4330   19.2560 H   0  0  0  0  0  0  0  0  0  0  0  0
   29.5820   74.5542   22.4291 H   0  0  0  0  0  0  0  0  0  0  0  0
   29.7748   76.7586   23.5809 H   0  0  0  0  0  0  0  0  0  0  0  0
   31.5563   78.3661   22.9109 H   0  0  0  0  0  0  0  0  0  0  0  0
   33.1504   77.7774   21.0851 H   0  0  0  0  0  0  0  0  0  0  0  0
  1  2  2  0
  2  3  1  0
  3  4  1  0
  4  5  1  0
  5  6  1  0
  6  7  1  0
  7  8  2  0
  8  9  1  0
  9 10  1  0
 10 11  1  0
 11 12  1  0
 12 13  1  0
 10 14  1  0
 14 15  1  0
 15 16  1  0
  9 17  2  0
 17 18  1  0
  2 19  1  0
 19 20  1  0
 20 21  1  0
 21 22  2  0
 22 23  1  0
 23 24  2  0
 24 25  1  0
 25 26  2  0
 20 27  1  0
 27 28  1  0
 28 29  2  0
 29 30  1  0
 29 31  1  0
 31 32  2  0
 32 33  1  0
 33 34  1  0
 32 35  1  0
 35 36  2  0
 35 37  1  0
 37 38  2  0
 38 39  1  0
 39 40  2  0
 40 41  1  0
 41 42  2  0
 42 43  1  0
 43 44  2  0
 18  6  2  0
 26 21  1  0
 33 27  2  0
 42 37  1  0
 43 31  1  0
  3 45  1  0
  3 46  1  0
  4 47  1  0
  4 48  1  0
  5 49  1  0
  5 50  1  0
  7 51  1  0
  8 52  1  0
 11 53  1  0
 11 54  1  0
 12 55  1  0
 12 56  1  0
 14 57  1  0
 14 58  1  0
 15 59  1  0
 15 60  1  0
 17 61  1  0
 18 62  1  0
 20 63  1  6
 22 64  1  0
 23 65  1  0
 24 66  1  0
 25 67  1  0
 26 68  1  0
 28 69  1  0
 30 70  1  0
 34 71  1  0
 38 72  1  0
 39 73  1  0
 40 74  1  0
 41 75  1  0
M  END
>  <meeko>  (4) 
{"is_sidechain": [false], "free_energy": -7.505, "intermolecular_energy": -12.926, "internal_energy": -5.427}

$$$$
SCHEMBL24279188_10054794_out
     RDKit          3D

 75 79  0  0  0  0  0  0  0  0999 V2000
   34.7710   71.1220   14.8450 O   0  0  0  0  0  0  0  0  0  0  0  0
   34.0070   72.0750   14.7670 C   0  0  0  0  0  0  0  0  0  0  0  0
   34.4400   73.5000   14.5060 C   0  0  0  0  0  0  0  0  0  0  0  0
   33.3610   74.5260   14.8590 C   0  0  0  0  0  0  0  0  0  0  0  0
   33.7680   75.5020   15.9710 C   0  0  0  0  0  0  0  0  0  0  0  0
   32.6600   76.4030   16.4520 C   0  0  0  0  0  0  0  0  0  0  0  0
   31.4030   76.3470   15.8480 C   0  0  0  0  0  0  0  0  0  0  0  0
   30.3770   77.1810   16.2920 C   0  0  0  0  0  0  0  0  0  0  0  0
   30.6080   78.0710   17.3400 C   0  0  0  0  0  0  0  0  0  0  0  0
   29.5700   78.9150   17.7890 N   0  0  0  0  0  0  0  0  0  0  0  0
   28.9230   79.8320   16.8720 C   0  0  0  0  0  0  0  0  0  0  0  0
   29.9340   80.7770   16.2410 C   0  0  0  0  0  0  0  0  0  0  0  0
   30.4490   82.0370   17.3890 Cl  0  0  0  0  0  0  0  0  0  0  0  0
   29.1490   78.8880   19.1760 C   0  0  0  0  0  0  0  0  0  0  0  0
   28.2890   80.0970   19.5080 C   0  0  0  0  0  0  0  0  0  0  0  0
   26.5660   79.6610   19.6190 Cl  0  0  0  0  0  0  0  0  0  0  0  0
   31.8640   78.1280   17.9450 C   0  0  0  0  0  0  0  0  0  0  0  0
   32.8890   77.2940   17.5000 C   0  0  0  0  0  0  0  0  0  0  0  0
   32.6550   72.0370   14.9250 O   0  0  0  0  0  0  0  0  0  0  0  0
   32.1980   71.3990   16.1310 C   0  0  2  0  0  0  0  0  0  0  0  0
   31.2830   70.2360   15.7710 C   0  0  0  0  0  0  0  0  0  0  0  0
   31.0460   69.2210   16.6980 C   0  0  0  0  0  0  0  0  0  0  0  0
   30.2080   68.1560   16.3690 C   0  0  0  0  0  0  0  0  0  0  0  0
   29.6070   68.1060   15.1110 C   0  0  0  0  0  0  0  0  0  0  0  0
   29.8440   69.1200   14.1840 C   0  0  0  0  0  0  0  0  0  0  0  0
   30.6820   70.1860   14.5130 C   0  0  0  0  0  0  0  0  0  0  0  0
   31.5870   72.3720   17.0860 C   0  0  0  0  0  0  0  0  0  0  0  0
   30.2180   72.6190   17.0130 C   0  0  0  0  0  0  0  0  0  0  0  0
   29.6220   73.5220   17.8930 C   0  0  0  0  0  0  0  0  0  0  0  0
   28.2780   73.7190   17.7700 O   0  0  0  0  0  0  0  0  0  0  0  0
   30.4000   74.1820   18.8520 C   0  0  0  0  0  0  0  0  0  0  0  0
   31.7720   73.9340   18.9250 C   0  0  0  0  0  0  0  0  0  0  0  0
   32.3660   73.0270   18.0400 C   0  0  0  0  0  0  0  0  0  0  0  0
   33.7030   72.7520   18.0710 O   0  0  0  0  0  0  0  0  0  0  0  0
   32.6050   74.6230   19.9310 C   0  0  0  0  0  0  0  0  0  0  0  0
   33.8100   74.4250   20.0180 O   0  0  0  0  0  0  0  0  0  0  0  0
   31.9660   75.5780   20.8590 C   0  0  0  0  0  0  0  0  0  0  0  0
   32.7440   76.2380   21.8180 C   0  0  0  0  0  0  0  0  0  0  0  0
   32.1480   77.1410   22.6990 C   0  0  0  0  0  0  0  0  0  0  0  0
   30.7790   77.3870   22.6260 C   0  0  0  0  0  0  0  0  0  0  0  0
   29.9990   76.7330   21.6730 C   0  0  0  0  0  0  0  0  0  0  0  0
   30.5930   75.8250   20.7870 C   0  0  0  0  0  0  0  0  0  0  0  0
   29.7600   75.1360   19.7810 C   0  0  0  0  0  0  0  0  0  0  0  0
   28.5590   75.3710   19.7370 O   0  0  0  0  0  0  0  0  0  0  0  0
   35.3351   73.7107   15.1096 H   0  0  0  0  0  0  0  0  0  0  0  0
   34.6412   73.5910   13.4284 H   0  0  0  0  0  0  0  0  0  0  0  0
   33.1287   75.1086   13.9553 H   0  0  0  0  0  0  0  0  0  0  0  0
   32.4945   73.9609   15.2329 H   0  0  0  0  0  0  0  0  0  0  0  0
   34.1287   74.9144   16.8281 H   0  0  0  0  0  0  0  0  0  0  0  0
   34.5395   76.1585   15.5423 H   0  0  0  0  0  0  0  0  0  0  0  0
   31.2214   75.6446   15.0212 H   0  0  0  0  0  0  0  0  0  0  0  0
   29.3865   77.1366   15.8157 H   0  0  0  0  0  0  0  0  0  0  0  0
   28.4255   79.2555   16.0782 H   0  0  0  0  0  0  0  0  0  0  0  0
   28.1889   80.4287   17.4333 H   0  0  0  0  0  0  0  0  0  0  0  0
   30.8150   80.1994   15.9245 H   0  0  0  0  0  0  0  0  0  0  0  0
   29.4587   81.2673   15.3786 H   0  0  0  0  0  0  0  0  0  0  0  0
   28.5675   77.9721   19.3577 H   0  0  0  0  0  0  0  0  0  0  0  0
   30.0445   78.9089   19.8145 H   0  0  0  0  0  0  0  0  0  0  0  0
   28.6152   80.5138   20.4723 H   0  0  0  0  0  0  0  0  0  0  0  0
   28.4069   80.8364   18.7021 H   0  0  0  0  0  0  0  0  0  0  0  0
   32.0454   78.8301   18.7721 H   0  0  0  0  0  0  0  0  0  0  0  0
   33.8795   77.3389   17.9762 H   0  0  0  0  0  0  0  0  0  0  0  0
   33.0611   70.9862   16.6738 H   0  0  0  0  0  0  0  0  0  0  0  0
   31.5206   69.2607   17.6896 H   0  0  0  0  0  0  0  0  0  0  0  0
   30.0211   67.3562   17.1007 H   0  0  0  0  0  0  0  0  0  0  0  0
   28.9459   67.2663   14.8504 H   0  0  0  0  0  0  0  0  0  0  0  0
   29.3699   69.0796   13.1922 H   0  0  0  0  0  0  0  0  0  0  0  0
   30.8685   70.9860   13.7814 H   0  0  0  0  0  0  0  0  0  0  0  0
   29.6060   72.1009   16.2600 H   0  0  0  0  0  0  0  0  0  0  0  0
   27.6520   72.9630   17.9020 H   0  0  0  0  0  0  0  0  0  0  0  0
   34.1560   72.4030   17.2630 H   0  0  0  0  0  0  0  0  0  0  0  0
   33.8253   76.0446   21.8768 H   0  0  0  0  0  0  0  0  0  0  0  0
   32.7599   77.6592   23.4520 H   0  0  0  0  0  0  0  0  0  0  0  0
   30.3118   78.0992   23.3221 H   0  0  0  0  0  0  0  0  0  0  0  0
   28.9182   76.9299   21.6170 H   0  0  0  0  0  0  0  0  0  0  0  0
  1  2  2  0
  2  3  1  0
  3  4  1  0
  4  5  1  0
  5  6  1  0
  6  7  1  0
  7  8  2  0
  8  9  1  0
  9 10  1  0
 10 11  1  0
 11 12  1  0
 12 13  1  0
 10 14  1  0
 14 15  1  0
 15 16  1  0
  9 17  2  0
 17 18  1  0
  2 19  1  0
 19 20  1  0
 20 21  1  0
 21 22  2  0
 22 23  1  0
 23 24  2  0
 24 25  1  0
 25 26  2  0
 20 27  1  0
 27 28  1  0
 28 29  2  0
 29 30  1  0
 29 31  1  0
 31 32  2  0
 32 33  1  0
 33 34  1  0
 32 35  1  0
 35 36  2  0
 35 37  1  0
 37 38  2  0
 38 39  1  0
 39 40  2  0
 40 41  1  0
 41 42  2  0
 42 43  1  0
 43 44  2  0
 18  6  2  0
 26 21  1  0
 33 27  2  0
 42 37  1  0
 43 31  1  0
  3 45  1  0
  3 46  1  0
  4 47  1  0
  4 48  1  0
  5 49  1  0
  5 50  1  0
  7 51  1  0
  8 52  1  0
 11 53  1  0
 11 54  1  0
 12 55  1  0
 12 56  1  0
 14 57  1  0
 14 58  1  0
 15 59  1  0
 15 60  1  0
 17 61  1  0
 18 62  1  0
 20 63  1  1
 22 64  1  0
 23 65  1  0
 24 66  1  0
 25 67  1  0
 26 68  1  0
 28 69  1  0
 30 70  1  0
 34 71  1  0
 38 72  1  0
 39 73  1  0
 40 74  1  0
 41 75  1  0
M  END
>  <meeko>  (5) 
{"is_sidechain": [false], "free_energy": -7.47, "intermolecular_energy": -13.612, "internal_energy": -4.678}

$$$$
SCHEMBL24279188_10054794_out
     RDKit          3D

 75 79  0  0  0  0  0  0  0  0999 V2000
   32.0110   69.9080   14.0840 O   0  0  0  0  0  0  0  0  0  0  0  0
   32.4290   70.3730   15.1360 C   0  0  0  0  0  0  0  0  0  0  0  0
   33.5530   71.3780   15.2410 C   0  0  0  0  0  0  0  0  0  0  0  0
   33.1300   72.7910   14.8350 C   0  0  0  0  0  0  0  0  0  0  0  0
   31.7000   73.1590   15.2550 C   0  0  0  0  0  0  0  0  0  0  0  0
   31.5860   74.4490   16.0270 C   0  0  0  0  0  0  0  0  0  0  0  0
   32.6670   75.3280   16.0810 C   0  0  0  0  0  0  0  0  0  0  0  0
   32.5620   76.5220   16.7950 C   0  0  0  0  0  0  0  0  0  0  0  0
   31.3740   76.8360   17.4550 C   0  0  0  0  0  0  0  0  0  0  0  0
   31.2680   78.0430   18.1780 N   0  0  0  0  0  0  0  0  0  0  0  0
   30.2380   78.2060   19.1840 C   0  0  0  0  0  0  0  0  0  0  0  0
   29.6420   79.6040   19.1330 C   0  0  0  0  0  0  0  0  0  0  0  0
   28.3620   79.8110   20.3540 Cl  0  0  0  0  0  0  0  0  0  0  0  0
   32.1770   79.1400   17.9120 C   0  0  0  0  0  0  0  0  0  0  0  0
   33.3610   79.1110   18.8650 C   0  0  0  0  0  0  0  0  0  0  0  0
   33.2110   80.3560   20.1300 Cl  0  0  0  0  0  0  0  0  0  0  0  0
   30.2920   75.9570   17.4020 C   0  0  0  0  0  0  0  0  0  0  0  0
   30.3980   74.7640   16.6880 C   0  0  0  0  0  0  0  0  0  0  0  0
   31.9880   70.0570   16.3850 O   0  0  0  0  0  0  0  0  0  0  0  0
   32.8350   70.4980   17.4620 C   0  0  2  0  0  0  0  0  0  0  0  0
   33.4150   69.2830   18.1760 C   0  0  0  0  0  0  0  0  0  0  0  0
   32.6060   68.1790   18.4440 C   0  0  0  0  0  0  0  0  0  0  0  0
   33.1370   67.0670   19.0970 C   0  0  0  0  0  0  0  0  0  0  0  0
   34.4780   67.0600   19.4830 C   0  0  0  0  0  0  0  0  0  0  0  0
   35.2860   68.1630   19.2160 C   0  0  0  0  0  0  0  0  0  0  0  0
   34.7560   69.2760   18.5620 C   0  0  0  0  0  0  0  0  0  0  0  0
   32.1380   71.4540   18.3730 C   0  0  0  0  0  0  0  0  0  0  0  0
   30.8300   71.1780   18.7670 C   0  0  0  0  0  0  0  0  0  0  0  0
   30.1560   72.0540   19.6180 C   0  0  0  0  0  0  0  0  0  0  0  0
   28.8790   71.7260   19.9670 O   0  0  0  0  0  0  0  0  0  0  0  0
   30.7940   73.2130   20.0770 C   0  0  0  0  0  0  0  0  0  0  0  0
   32.1040   73.4900   19.6810 C   0  0  0  0  0  0  0  0  0  0  0  0
   32.7770   72.6080   18.8270 C   0  0  0  0  0  0  0  0  0  0  0  0
   34.0570   72.8350   18.4120 O   0  0  0  0  0  0  0  0  0  0  0  0
   32.7890   74.7090   20.1560 C   0  0  0  0  0  0  0  0  0  0  0  0
   33.9370   74.9760   19.8270 O   0  0  0  0  0  0  0  0  0  0  0  0
   32.0670   75.6310   21.0570 C   0  0  0  0  0  0  0  0  0  0  0  0
   32.7060   76.7900   21.5160 C   0  0  0  0  0  0  0  0  0  0  0  0
   32.0320   77.6670   22.3670 C   0  0  0  0  0  0  0  0  0  0  0  0
   30.7250   77.3900   22.7620 C   0  0  0  0  0  0  0  0  0  0  0  0
   30.0850   76.2370   22.3080 C   0  0  0  0  0  0  0  0  0  0  0  0
   30.7570   75.3540   21.4540 C   0  0  0  0  0  0  0  0  0  0  0  0
   30.0730   74.1350   20.9790 C   0  0  0  0  0  0  0  0  0  0  0  0
   28.9240   73.9150   21.3400 O   0  0  0  0  0  0  0  0  0  0  0  0
   33.9049   71.4030   16.2829 H   0  0  0  0  0  0  0  0  0  0  0  0
   34.3456   71.0594   14.5480 H   0  0  0  0  0  0  0  0  0  0  0  0
   33.8227   73.5070   15.3014 H   0  0  0  0  0  0  0  0  0  0  0  0
   33.1588   72.8287   13.7360 H   0  0  0  0  0  0  0  0  0  0  0  0
   31.0873   73.2477   14.3458 H   0  0  0  0  0  0  0  0  0  0  0  0
   31.3574   72.3603   15.9293 H   0  0  0  0  0  0  0  0  0  0  0  0
   33.6035   75.0798   15.5601 H   0  0  0  0  0  0  0  0  0  0  0  0
   33.4152   77.2150   16.8374 H   0  0  0  0  0  0  0  0  0  0  0  0
   29.4414   77.4687   19.0058 H   0  0  0  0  0  0  0  0  0  0  0  0
   30.6896   78.0538   20.1754 H   0  0  0  0  0  0  0  0  0  0  0  0
   30.4381   80.3393   19.3212 H   0  0  0  0  0  0  0  0  0  0  0  0
   29.1981   79.7545   18.1378 H   0  0  0  0  0  0  0  0  0  0  0  0
   32.5452   79.0593   16.8786 H   0  0  0  0  0  0  0  0  0  0  0  0
   31.6350   80.0864   18.0558 H   0  0  0  0  0  0  0  0  0  0  0  0
   33.4119   78.1211   19.3419 H   0  0  0  0  0  0  0  0  0  0  0  0
   34.2745   79.3144   18.2870 H   0  0  0  0  0  0  0  0  0  0  0  0
   29.3556   76.2049   17.9233 H   0  0  0  0  0  0  0  0  0  0  0  0
   29.5449   74.0709   16.6457 H   0  0  0  0  0  0  0  0  0  0  0  0
   33.6758   71.0755   17.0503 H   0  0  0  0  0  0  0  0  0  0  0  0
   31.5488   68.1854   18.1402 H   0  0  0  0  0  0  0  0  0  0  0  0
   32.4991   66.1959   19.3077 H   0  0  0  0  0  0  0  0  0  0  0  0
   34.8972   66.1832   19.9983 H   0  0  0  0  0  0  0  0  0  0  0  0
   36.3428   68.1566   19.5210 H   0  0  0  0  0  0  0  0  0  0  0  0
   35.3944   70.1466   18.3510 H   0  0  0  0  0  0  0  0  0  0  0  0
   30.3283   70.2679   18.4063 H   0  0  0  0  0  0  0  0  0  0  0  0
   28.3140   72.3800   20.4480 H   0  0  0  0  0  0  0  0  0  0  0  0
   34.3350   72.5740   17.4980 H   0  0  0  0  0  0  0  0  0  0  0  0
   33.7385   77.0087   21.2058 H   0  0  0  0  0  0  0  0  0  0  0  0
   32.5332   78.5779   22.7263 H   0  0  0  0  0  0  0  0  0  0  0  0
   30.1965   78.0825   23.4337 H   0  0  0  0  0  0  0  0  0  0  0  0
   29.0527   76.0214   22.6207 H   0  0  0  0  0  0  0  0  0  0  0  0
  1  2  2  0
  2  3  1  0
  3  4  1  0
  4  5  1  0
  5  6  1  0
  6  7  1  0
  7  8  2  0
  8  9  1  0
  9 10  1  0
 10 11  1  0
 11 12  1  0
 12 13  1  0
 10 14  1  0
 14 15  1  0
 15 16  1  0
  9 17  2  0
 17 18  1  0
  2 19  1  0
 19 20  1  0
 20 21  1  0
 21 22  2  0
 22 23  1  0
 23 24  2  0
 24 25  1  0
 25 26  2  0
 20 27  1  0
 27 28  1  0
 28 29  2  0
 29 30  1  0
 29 31  1  0
 31 32  2  0
 32 33  1  0
 33 34  1  0
 32 35  1  0
 35 36  2  0
 35 37  1  0
 37 38  2  0
 38 39  1  0
 39 40  2  0
 40 41  1  0
 41 42  2  0
 42 43  1  0
 43 44  2  0
 18  6  2  0
 26 21  1  0
 33 27  2  0
 42 37  1  0
 43 31  1  0
  3 45  1  0
  3 46  1  0
  4 47  1  0
  4 48  1  0
  5 49  1  0
  5 50  1  0
  7 51  1  0
  8 52  1  0
 11 53  1  0
 11 54  1  0
 12 55  1  0
 12 56  1  0
 14 57  1  0
 14 58  1  0
 15 59  1  0
 15 60  1  0
 17 61  1  0
 18 62  1  0
 20 63  1  6
 22 64  1  0
 23 65  1  0
 24 66  1  0
 25 67  1  0
 26 68  1  0
 28 69  1  0
 30 70  1  0
 34 71  1  0
 38 72  1  0
 39 73  1  0
 40 74  1  0
 41 75  1  0
M  END
>  <meeko>  (6) 
{"is_sidechain": [false], "free_energy": -7.445, "intermolecular_energy": -13.405, "internal_energy": -4.839}

$$$$
SCHEMBL24279188_10054794_out
     RDKit          3D

 75 79  0  0  0  0  0  0  0  0999 V2000
   29.5460   78.1340   12.3940 O   0  0  0  0  0  0  0  0  0  0  0  0
   30.7200   78.4270   12.2160 C   0  0  0  0  0  0  0  0  0  0  0  0
   31.8060   77.4350   11.8630 C   0  0  0  0  0  0  0  0  0  0  0  0
   32.1040   76.4500   12.9960 C   0  0  0  0  0  0  0  0  0  0  0  0
   32.7570   77.0940   14.2270 C   0  0  0  0  0  0  0  0  0  0  0  0
   32.2410   76.5840   15.5490 C   0  0  0  0  0  0  0  0  0  0  0  0
   33.1030   76.4750   16.6390 C   0  0  0  0  0  0  0  0  0  0  0  0
   32.6260   76.0040   17.8620 C   0  0  0  0  0  0  0  0  0  0  0  0
   31.2860   75.6420   17.9940 C   0  0  0  0  0  0  0  0  0  0  0  0
   30.8040   75.1640   19.2310 N   0  0  0  0  0  0  0  0  0  0  0  0
   29.4580   75.4830   19.6660 C   0  0  0  0  0  0  0  0  0  0  0  0
   28.6680   74.2180   19.9640 C   0  0  0  0  0  0  0  0  0  0  0  0
   28.2590   73.3400   18.4700 Cl  0  0  0  0  0  0  0  0  0  0  0  0
   31.6530   74.3620   20.0900 C   0  0  0  0  0  0  0  0  0  0  0  0
   32.1270   75.1650   21.2910 C   0  0  0  0  0  0  0  0  0  0  0  0
   31.1050   74.8690   22.7180 Cl  0  0  0  0  0  0  0  0  0  0  0  0
   30.4220   75.7500   16.9040 C   0  0  0  0  0  0  0  0  0  0  0  0
   30.9000   76.2220   15.6810 C   0  0  0  0  0  0  0  0  0  0  0  0
   31.2650   79.6700   12.3270 O   0  0  0  0  0  0  0  0  0  0  0  0
   30.6480   80.5220   13.3090 C   0  0  2  0  0  0  0  0  0  0  0  0
   30.6730   81.9620   12.8120 C   0  0  0  0  0  0  0  0  0  0  0  0
   30.3010   83.0010   13.6660 C   0  0  0  0  0  0  0  0  0  0  0  0
   30.3230   84.3190   13.2120 C   0  0  0  0  0  0  0  0  0  0  0  0
   30.7170   84.5990   11.9040 C   0  0  0  0  0  0  0  0  0  0  0  0
   31.0880   83.5610   11.0500 C   0  0  0  0  0  0  0  0  0  0  0  0
   31.0670   82.2420   11.5040 C   0  0  0  0  0  0  0  0  0  0  0  0
   31.2470   80.3440   14.6650 C   0  0  0  0  0  0  0  0  0  0  0  0
   32.6020   80.6170   14.8460 C   0  0  0  0  0  0  0  0  0  0  0  0
   33.1860   80.4590   16.1030 C   0  0  0  0  0  0  0  0  0  0  0  0
   34.5150   80.7430   16.2140 O   0  0  0  0  0  0  0  0  0  0  0  0
   32.4100   80.0260   17.1850 C   0  0  0  0  0  0  0  0  0  0  0  0
   31.0530   79.7520   17.0040 C   0  0  0  0  0  0  0  0  0  0  0  0
   30.4710   79.9120   15.7410 C   0  0  0  0  0  0  0  0  0  0  0  0
   29.1500   79.6560   15.5140 O   0  0  0  0  0  0  0  0  0  0  0  0
   30.2230   79.2930   18.1370 C   0  0  0  0  0  0  0  0  0  0  0  0
   29.0310   79.0470   18.0070 O   0  0  0  0  0  0  0  0  0  0  0  0
   30.8500   79.1290   19.4640 C   0  0  0  0  0  0  0  0  0  0  0  0
   30.0740   78.6950   20.5460 C   0  0  0  0  0  0  0  0  0  0  0  0
   30.6580   78.5380   21.8040 C   0  0  0  0  0  0  0  0  0  0  0  0
   32.0110   78.8120   21.9850 C   0  0  0  0  0  0  0  0  0  0  0  0
   32.7880   79.2440   20.9100 C   0  0  0  0  0  0  0  0  0  0  0  0
   32.2070   79.4040   19.6460 C   0  0  0  0  0  0  0  0  0  0  0  0
   33.0370   79.8620   18.5140 C   0  0  0  0  0  0  0  0  0  0  0  0
   34.2240   80.0950   18.6990 O   0  0  0  0  0  0  0  0  0  0  0  0
   31.4869   76.8655   10.9776 H   0  0  0  0  0  0  0  0  0  0  0  0
   32.7261   78.0068   11.6721 H   0  0  0  0  0  0  0  0  0  0  0  0
   31.1570   75.9864   13.3094 H   0  0  0  0  0  0  0  0  0  0  0  0
   32.8233   75.7178   12.6004 H   0  0  0  0  0  0  0  0  0  0  0  0
   33.8388   76.8999   14.1828 H   0  0  0  0  0  0  0  0  0  0  0  0
   32.5094   78.1650   14.1874 H   0  0  0  0  0  0  0  0  0  0  0  0
   34.1601   76.7606   16.5345 H   0  0  0  0  0  0  0  0  0  0  0  0
   33.3065   75.9182   18.7219 H   0  0  0  0  0  0  0  0  0  0  0  0
   29.5103   76.0975   20.5768 H   0  0  0  0  0  0  0  0  0  0  0  0
   28.9497   76.0321   18.8597 H   0  0  0  0  0  0  0  0  0  0  0  0
   29.2712   73.5633   20.6101 H   0  0  0  0  0  0  0  0  0  0  0  0
   27.7313   74.5048   20.4643 H   0  0  0  0  0  0  0  0  0  0  0  0
   31.0851   73.4885   20.4428 H   0  0  0  0  0  0  0  0  0  0  0  0
   32.5331   74.0421   19.5129 H   0  0  0  0  0  0  0  0  0  0  0  0
   33.1623   74.8778   21.5270 H   0  0  0  0  0  0  0  0  0  0  0  0
   32.0652   76.2337   21.0378 H   0  0  0  0  0  0  0  0  0  0  0  0
   29.3652   75.4634   17.0086 H   0  0  0  0  0  0  0  0  0  0  0  0
   30.2196   76.3087   14.8210 H   0  0  0  0  0  0  0  0  0  0  0  0
   29.5946   80.2309   13.4340 H   0  0  0  0  0  0  0  0  0  0  0  0
   29.9903   82.7800   14.6978 H   0  0  0  0  0  0  0  0  0  0  0  0
   30.0296   85.1378   13.8854 H   0  0  0  0  0  0  0  0  0  0  0  0
   30.7351   85.6389   11.5458 H   0  0  0  0  0  0  0  0  0  0  0  0
   31.3974   83.7823   10.0179 H   0  0  0  0  0  0  0  0  0  0  0  0
   31.3611   81.4234   10.8306 H   0  0  0  0  0  0  0  0  0  0  0  0
   33.2118   80.9576   13.9962 H   0  0  0  0  0  0  0  0  0  0  0  0
   35.1630   80.0190   16.3980 H   0  0  0  0  0  0  0  0  0  0  0  0
   28.8300   79.4860   14.5920 H   0  0  0  0  0  0  0  0  0  0  0  0
   29.0049   78.4780   20.4046 H   0  0  0  0  0  0  0  0  0  0  0  0
   30.0483   78.1972   22.6538 H   0  0  0  0  0  0  0  0  0  0  0  0
   32.4682   78.6876   22.9777 H   0  0  0  0  0  0  0  0  0  0  0  0
   33.8570   79.4590   21.0552 H   0  0  0  0  0  0  0  0  0  0  0  0
  1  2  2  0
  2  3  1  0
  3  4  1  0
  4  5  1  0
  5  6  1  0
  6  7  1  0
  7  8  2  0
  8  9  1  0
  9 10  1  0
 10 11  1  0
 11 12  1  0
 12 13  1  0
 10 14  1  0
 14 15  1  0
 15 16  1  0
  9 17  2  0
 17 18  1  0
  2 19  1  0
 19 20  1  0
 20 21  1  0
 21 22  2  0
 22 23  1  0
 23 24  2  0
 24 25  1  0
 25 26  2  0
 20 27  1  0
 27 28  1  0
 28 29  2  0
 29 30  1  0
 29 31  1  0
 31 32  2  0
 32 33  1  0
 33 34  1  0
 32 35  1  0
 35 36  2  0
 35 37  1  0
 37 38  2  0
 38 39  1  0
 39 40  2  0
 40 41  1  0
 41 42  2  0
 42 43  1  0
 43 44  2  0
 18  6  2  0
 26 21  1  0
 33 27  2  0
 42 37  1  0
 43 31  1  0
  3 45  1  0
  3 46  1  0
  4 47  1  0
  4 48  1  0
  5 49  1  0
  5 50  1  0
  7 51  1  0
  8 52  1  0
 11 53  1  0
 11 54  1  0
 12 55  1  0
 12 56  1  0
 14 57  1  0
 14 58  1  0
 15 59  1  0
 15 60  1  0
 17 61  1  0
 18 62  1  0
 20 63  1  1
 22 64  1  0
 23 65  1  0
 24 66  1  0
 25 67  1  0
 26 68  1  0
 28 69  1  0
 30 70  1  0
 34 71  1  0
 38 72  1  0
 39 73  1  0
 40 74  1  0
 41 75  1  0
M  END
>  <meeko>  (7) 
{"is_sidechain": [false], "free_energy": -7.391, "intermolecular_energy": -12.882, "internal_energy": -5.264}

$$$$
SCHEMBL24279188_10054794_out
     RDKit          3D

 75 79  0  0  0  0  0  0  0  0999 V2000
   29.5530   78.2170   12.6030 O   0  0  0  0  0  0  0  0  0  0  0  0
   30.7550   78.4400   12.5440 C   0  0  0  0  0  0  0  0  0  0  0  0
   31.8100   77.3820   12.3110 C   0  0  0  0  0  0  0  0  0  0  0  0
   31.9360   76.3980   13.4760 C   0  0  0  0  0  0  0  0  0  0  0  0
   32.5890   76.9960   14.7300 C   0  0  0  0  0  0  0  0  0  0  0  0
   32.0860   76.4250   16.0310 C   0  0  0  0  0  0  0  0  0  0  0  0
   30.7640   75.9940   16.1400 C   0  0  0  0  0  0  0  0  0  0  0  0
   30.2990   75.4650   17.3440 C   0  0  0  0  0  0  0  0  0  0  0  0
   31.1570   75.3670   18.4390 C   0  0  0  0  0  0  0  0  0  0  0  0
   30.6860   74.8330   19.6570 N   0  0  0  0  0  0  0  0  0  0  0  0
   31.5990   74.1780   20.5730 C   0  0  0  0  0  0  0  0  0  0  0  0
   31.5330   74.8100   21.9540 C   0  0  0  0  0  0  0  0  0  0  0  0
   33.0930   75.5360   22.4130 Cl  0  0  0  0  0  0  0  0  0  0  0  0
   29.2800   74.9190   20.0010 C   0  0  0  0  0  0  0  0  0  0  0  0
   28.6840   73.5350   20.2080 C   0  0  0  0  0  0  0  0  0  0  0  0
   27.5360   73.1200   18.9120 Cl  0  0  0  0  0  0  0  0  0  0  0  0
   32.4790   75.7980   18.3320 C   0  0  0  0  0  0  0  0  0  0  0  0
   32.9440   76.3270   17.1270 C   0  0  0  0  0  0  0  0  0  0  0  0
   31.3580   79.6500   12.7020 O   0  0  0  0  0  0  0  0  0  0  0  0
   30.7140   80.5370   13.6350 C   0  0  2  0  0  0  0  0  0  0  0  0
   30.9320   81.9790   13.1930 C   0  0  0  0  0  0  0  0  0  0  0  0
   31.7500   82.2560   12.0970 C   0  0  0  0  0  0  0  0  0  0  0  0
   31.9500   83.5760   11.6920 C   0  0  0  0  0  0  0  0  0  0  0  0
   31.3330   84.6180   12.3840 C   0  0  0  0  0  0  0  0  0  0  0  0
   30.5160   84.3410   13.4790 C   0  0  0  0  0  0  0  0  0  0  0  0
   30.3150   83.0210   13.8840 C   0  0  0  0  0  0  0  0  0  0  0  0
   31.1300   80.2710   15.0440 C   0  0  0  0  0  0  0  0  0  0  0  0
   32.4590   80.4800   15.4060 C   0  0  0  0  0  0  0  0  0  0  0  0
   32.8740   80.2390   16.7160 C   0  0  0  0  0  0  0  0  0  0  0  0
   34.1870   80.4640   17.0060 O   0  0  0  0  0  0  0  0  0  0  0  0
   31.9530   79.7880   17.6690 C   0  0  0  0  0  0  0  0  0  0  0  0
   30.6220   79.5780   17.3060 C   0  0  0  0  0  0  0  0  0  0  0  0
   30.2100   79.8200   15.9910 C   0  0  0  0  0  0  0  0  0  0  0  0
   28.9200   79.6300   15.5880 O   0  0  0  0  0  0  0  0  0  0  0  0
   29.6400   79.1000   18.3020 C   0  0  0  0  0  0  0  0  0  0  0  0
   28.4660   78.9090   18.0120 O   0  0  0  0  0  0  0  0  0  0  0  0
   30.0880   78.8480   19.6870 C   0  0  0  0  0  0  0  0  0  0  0  0
   29.1670   78.3960   20.6400 C   0  0  0  0  0  0  0  0  0  0  0  0
   29.5810   78.1560   21.9510 C   0  0  0  0  0  0  0  0  0  0  0  0
   30.9100   78.3660   22.3120 C   0  0  0  0  0  0  0  0  0  0  0  0
   31.8310   78.8170   21.3670 C   0  0  0  0  0  0  0  0  0  0  0  0
   31.4200   79.0590   20.0500 C   0  0  0  0  0  0  0  0  0  0  0  0
   32.4010   79.5370   19.0550 C   0  0  0  0  0  0  0  0  0  0  0  0
   33.5630   79.7120   19.3980 O   0  0  0  0  0  0  0  0  0  0  0  0
   31.5476   76.8190   11.4032 H   0  0  0  0  0  0  0  0  0  0  0  0
   32.7765   77.8973   12.2090 H   0  0  0  0  0  0  0  0  0  0  0  0
   30.9281   76.0483   13.7441 H   0  0  0  0  0  0  0  0  0  0  0  0
   32.5902   75.5823   13.1345 H   0  0  0  0  0  0  0  0  0  0  0  0
   33.6726   76.8156   14.6720 H   0  0  0  0  0  0  0  0  0  0  0  0
   32.3299   78.0650   14.7373 H   0  0  0  0  0  0  0  0  0  0  0  0
   30.0877   76.0713   15.2760 H   0  0  0  0  0  0  0  0  0  0  0  0
   29.2563   75.1254   17.4297 H   0  0  0  0  0  0  0  0  0  0  0  0
   31.3288   73.1145   20.6509 H   0  0  0  0  0  0  0  0  0  0  0  0
   32.6227   74.2886   20.1859 H   0  0  0  0  0  0  0  0  0  0  0  0
   30.7606   75.5932   21.9524 H   0  0  0  0  0  0  0  0  0  0  0  0
   31.2901   74.0230   22.6831 H   0  0  0  0  0  0  0  0  0  0  0  0
   29.1715   75.4998   20.9288 H   0  0  0  0  0  0  0  0  0  0  0  0
   28.7463   75.4104   19.1742 H   0  0  0  0  0  0  0  0  0  0  0  0
   29.4964   72.7934   20.2172 H   0  0  0  0  0  0  0  0  0  0  0  0
   28.1411   73.5320   21.1647 H   0  0  0  0  0  0  0  0  0  0  0  0
   33.1547   75.7211   19.1966 H   0  0  0  0  0  0  0  0  0  0  0  0
   33.9867   76.6666   17.0414 H   0  0  0  0  0  0  0  0  0  0  0  0
   29.6304   80.3476   13.6281 H   0  0  0  0  0  0  0  0  0  0  0  0
   32.2371   81.4337   11.5524 H   0  0  0  0  0  0  0  0  0  0  0  0
   32.5939   83.7948   10.8274 H   0  0  0  0  0  0  0  0  0  0  0  0
   31.4912   85.6589   12.0655 H   0  0  0  0  0  0  0  0  0  0  0  0
   30.0296   85.1634   14.0240 H   0  0  0  0  0  0  0  0  0  0  0  0
   29.6701   82.8026   14.7480 H   0  0  0  0  0  0  0  0  0  0  0  0
   33.1824   80.8357   14.6576 H   0  0  0  0  0  0  0  0  0  0  0  0
   34.4480   81.2550   17.5410 H   0  0  0  0  0  0  0  0  0  0  0  0
   28.6740   79.7560   14.6370 H   0  0  0  0  0  0  0  0  0  0  0  0
   28.1175   78.2301   20.3554 H   0  0  0  0  0  0  0  0  0  0  0  0
   28.8575   77.8008   22.6996 H   0  0  0  0  0  0  0  0  0  0  0  0
   31.2340   78.1754   23.3458 H   0  0  0  0  0  0  0  0  0  0  0  0
   32.8795   78.9826   21.6556 H   0  0  0  0  0  0  0  0  0  0  0  0
  1  2  2  0
  2  3  1  0
  3  4  1  0
  4  5  1  0
  5  6  1  0
  6  7  1  0
  7  8  2  0
  8  9  1  0
  9 10  1  0
 10 11  1  0
 11 12  1  0
 12 13  1  0
 10 14  1  0
 14 15  1  0
 15 16  1  0
  9 17  2  0
 17 18  1  0
  2 19  1  0
 19 20  1  0
 20 21  1  0
 21 22  2  0
 22 23  1  0
 23 24  2  0
 24 25  1  0
 25 26  2  0
 20 27  1  0
 27 28  1  0
 28 29  2  0
 29 30  1  0
 29 31  1  0
 31 32  2  0
 32 33  1  0
 33 34  1  0
 32 35  1  0
 35 36  2  0
 35 37  1  0
 37 38  2  0
 38 39  1  0
 39 40  2  0
 40 41  1  0
 41 42  2  0
 42 43  1  0
 43 44  2  0
 18  6  2  0
 26 21  1  0
 33 27  2  0
 42 37  1  0
 43 31  1  0
  3 45  1  0
  3 46  1  0
  4 47  1  0
  4 48  1  0
  5 49  1  0
  5 50  1  0
  7 51  1  0
  8 52  1  0
 11 53  1  0
 11 54  1  0
 12 55  1  0
 12 56  1  0
 14 57  1  0
 14 58  1  0
 15 59  1  0
 15 60  1  0
 17 61  1  0
 18 62  1  0
 20 63  1  1
 22 64  1  0
 23 65  1  0
 24 66  1  0
 25 67  1  0
 26 68  1  0
 28 69  1  0
 30 70  1  0
 34 71  1  0
 38 72  1  0
 39 73  1  0
 40 74  1  0
 41 75  1  0
M  END
>  <meeko>  (8) 
{"is_sidechain": [false], "free_energy": -7.365, "intermolecular_energy": -12.809, "internal_energy": -5.289}

$$$$
SCHEMBL24279188_10054794_out
     RDKit          3D

 75 79  0  0  0  0  0  0  0  0999 V2000
   33.2150   76.6820   22.6120 O   0  0  0  0  0  0  0  0  0  0  0  0
   32.2250   77.2920   22.2320 C   0  0  0  0  0  0  0  0  0  0  0  0
   30.8220   77.0500   22.7410 C   0  0  0  0  0  0  0  0  0  0  0  0
   30.0990   75.9310   21.9880 C   0  0  0  0  0  0  0  0  0  0  0  0
   30.3960   74.5240   22.5270 C   0  0  0  0  0  0  0  0  0  0  0  0
   30.1500   73.4100   21.5420 C   0  0  0  0  0  0  0  0  0  0  0  0
   29.1150   72.5010   21.7610 C   0  0  0  0  0  0  0  0  0  0  0  0
   28.8860   71.4700   20.8500 C   0  0  0  0  0  0  0  0  0  0  0  0
   29.6930   71.3490   19.7190 C   0  0  0  0  0  0  0  0  0  0  0  0
   29.4630   70.3050   18.7980 N   0  0  0  0  0  0  0  0  0  0  0  0
   29.5580   68.9220   19.2180 C   0  0  0  0  0  0  0  0  0  0  0  0
   31.0070   68.4660   19.2690 C   0  0  0  0  0  0  0  0  0  0  0  0
   31.6190   68.0620   17.6460 Cl  0  0  0  0  0  0  0  0  0  0  0  0
   29.1440   70.6040   17.4160 C   0  0  0  0  0  0  0  0  0  0  0  0
   28.3610   69.4660   16.7790 C   0  0  0  0  0  0  0  0  0  0  0  0
   29.1700   68.8600   15.3120 Cl  0  0  0  0  0  0  0  0  0  0  0  0
   30.7290   72.2570   19.4990 C   0  0  0  0  0  0  0  0  0  0  0  0
   30.9570   73.2880   20.4110 C   0  0  0  0  0  0  0  0  0  0  0  0
   32.1960   78.2640   21.2780 O   0  0  0  0  0  0  0  0  0  0  0  0
   33.1230   78.0830   20.1920 C   0  0  2  0  0  0  0  0  0  0  0  0
   33.4650   79.4390   19.5890 C   0  0  0  0  0  0  0  0  0  0  0  0
   33.6120   79.5720   18.2080 C   0  0  0  0  0  0  0  0  0  0  0  0
   33.9240   80.8140   17.6560 C   0  0  0  0  0  0  0  0  0  0  0  0
   34.0900   81.9240   18.4850 C   0  0  0  0  0  0  0  0  0  0  0  0
   33.9430   81.7910   19.8650 C   0  0  0  0  0  0  0  0  0  0  0  0
   33.6300   80.5490   20.4180 C   0  0  0  0  0  0  0  0  0  0  0  0
   32.6330   77.0870   19.1930 C   0  0  0  0  0  0  0  0  0  0  0  0
   31.4770   77.3710   18.4680 C   0  0  0  0  0  0  0  0  0  0  0  0
   30.9980   76.4590   17.5280 C   0  0  0  0  0  0  0  0  0  0  0  0
   29.8630   76.7970   16.8520 O   0  0  0  0  0  0  0  0  0  0  0  0
   31.6790   75.2550   17.3120 C   0  0  0  0  0  0  0  0  0  0  0  0
   32.8370   74.9700   18.0380 C   0  0  0  0  0  0  0  0  0  0  0  0
   33.3150   75.8890   18.9800 C   0  0  0  0  0  0  0  0  0  0  0  0
   34.4410   75.6550   19.7140 O   0  0  0  0  0  0  0  0  0  0  0  0
   33.5660   73.7040   17.8200 C   0  0  0  0  0  0  0  0  0  0  0  0
   34.5840   73.4280   18.4410 O   0  0  0  0  0  0  0  0  0  0  0  0
   33.0510   72.7430   16.8230 C   0  0  0  0  0  0  0  0  0  0  0  0
   33.7330   71.5390   16.6060 C   0  0  0  0  0  0  0  0  0  0  0  0
   33.2540   70.6260   15.6650 C   0  0  0  0  0  0  0  0  0  0  0  0
   32.0990   70.9110   14.9410 C   0  0  0  0  0  0  0  0  0  0  0  0
   31.4170   72.1090   15.1530 C   0  0  0  0  0  0  0  0  0  0  0  0
   31.8940   73.0280   16.0960 C   0  0  0  0  0  0  0  0  0  0  0  0
   31.1650   74.2940   16.3130 C   0  0  0  0  0  0  0  0  0  0  0  0
   30.1520   74.5200   15.6640 O   0  0  0  0  0  0  0  0  0  0  0  0
   30.8770   76.7779   23.8054 H   0  0  0  0  0  0  0  0  0  0  0  0
   30.2499   77.9763   22.5838 H   0  0  0  0  0  0  0  0  0  0  0  0
   29.0158   76.1082   22.0612 H   0  0  0  0  0  0  0  0  0  0  0  0
   30.4628   75.9582   20.9503 H   0  0  0  0  0  0  0  0  0  0  0  0
   31.4533   74.4882   22.8285 H   0  0  0  0  0  0  0  0  0  0  0  0
   29.7026   74.3582   23.3647 H   0  0  0  0  0  0  0  0  0  0  0  0
   28.4787   72.5973   22.6531 H   0  0  0  0  0  0  0  0  0  0  0  0
   28.0699   70.7532   21.0234 H   0  0  0  0  0  0  0  0  0  0  0  0
   29.1130   68.8187   20.2187 H   0  0  0  0  0  0  0  0  0  0  0  0
   29.0196   68.2972   18.4902 H   0  0  0  0  0  0  0  0  0  0  0  0
   31.6217   69.2740   19.6923 H   0  0  0  0  0  0  0  0  0  0  0  0
   31.0639   67.5632   19.8949 H   0  0  0  0  0  0  0  0  0  0  0  0
   28.5399   71.5225   17.3768 H   0  0  0  0  0  0  0  0  0  0  0  0
   30.0839   70.7370   16.8602 H   0  0  0  0  0  0  0  0  0  0  0  0
   28.2717   68.6435   17.5039 H   0  0  0  0  0  0  0  0  0  0  0  0
   27.3686   69.8459   16.4947 H   0  0  0  0  0  0  0  0  0  0  0  0
   31.3656   72.1602   18.6072 H   0  0  0  0  0  0  0  0  0  0  0  0
   31.7733   74.0047   20.2380 H   0  0  0  0  0  0  0  0  0  0  0  0
   34.0558   77.6473   20.5792 H   0  0  0  0  0  0  0  0  0  0  0  0
   33.4818   78.6969   17.5544 H   0  0  0  0  0  0  0  0  0  0  0  0
   34.0392   80.9186   16.5671 H   0  0  0  0  0  0  0  0  0  0  0  0
   34.3368   82.9037   18.0499 H   0  0  0  0  0  0  0  0  0  0  0  0
   34.0739   82.6662   20.5184 H   0  0  0  0  0  0  0  0  0  0  0  0
   33.5134   80.4450   21.5068 H   0  0  0  0  0  0  0  0  0  0  0  0
   30.9413   78.3166   18.6376 H   0  0  0  0  0  0  0  0  0  0  0  0
   29.7240   77.7290   16.5520 H   0  0  0  0  0  0  0  0  0  0  0  0
   34.8440   76.3860   20.2480 H   0  0  0  0  0  0  0  0  0  0  0  0
   34.6457   71.3130   17.1769 H   0  0  0  0  0  0  0  0  0  0  0  0
   33.7895   69.6803   15.4951 H   0  0  0  0  0  0  0  0  0  0  0  0
   31.7237   70.1896   14.2002 H   0  0  0  0  0  0  0  0  0  0  0  0
   30.5050   72.3319   14.5798 H   0  0  0  0  0  0  0  0  0  0  0  0
  1  2  2  0
  2  3  1  0
  3  4  1  0
  4  5  1  0
  5  6  1  0
  6  7  1  0
  7  8  2  0
  8  9  1  0
  9 10  1  0
 10 11  1  0
 11 12  1  0
 12 13  1  0
 10 14  1  0
 14 15  1  0
 15 16  1  0
  9 17  2  0
 17 18  1  0
  2 19  1  0
 19 20  1  0
 20 21  1  0
 21 22  2  0
 22 23  1  0
 23 24  2  0
 24 25  1  0
 25 26  2  0
 20 27  1  0
 27 28  1  0
 28 29  2  0
 29 30  1  0
 29 31  1  0
 31 32  2  0
 32 33  1  0
 33 34  1  0
 32 35  1  0
 35 36  2  0
 35 37  1  0
 37 38  2  0
 38 39  1  0
 39 40  2  0
 40 41  1  0
 41 42  2  0
 42 43  1  0
 43 44  2  0
 18  6  2  0
 26 21  1  0
 33 27  2  0
 42 37  1  0
 43 31  1  0
  3 45  1  0
  3 46  1  0
  4 47  1  0
  4 48  1  0
  5 49  1  0
  5 50  1  0
  7 51  1  0
  8 52  1  0
 11 53  1  0
 11 54  1  0
 12 55  1  0
 12 56  1  0
 14 57  1  0
 14 58  1  0
 15 59  1  0
 15 60  1  0
 17 61  1  0
 18 62  1  0
 20 63  1  1
 22 64  1  0
 23 65  1  0
 24 66  1  0
 25 67  1  0
 26 68  1  0
 28 69  1  0
 30 70  1  0
 34 71  1  0
 38 72  1  0
 39 73  1  0
 40 74  1  0
 41 75  1  0
M  END
>  <meeko>  (9) 
{"is_sidechain": [false], "free_energy": -7.212, "intermolecular_energy": -13.912, "internal_energy": -3.908}

$$$$
